88
Energy =  -845.9919628493
 Au        22.4388892623       28.1999664951       25.4115316607
 Au        25.7382294804       19.7318376646       20.0778022440
 Au        22.8210709851       18.4469809829       21.4402019023
 Au        23.8856429039       25.0081159151       25.9972968159
 Au        21.5732889877       27.4774994180       22.0617039064
 Au        25.6102840477       25.7240531204       20.7208393900
 Au        24.0238902479       26.4580062325       23.5664310572
 Au        21.5671767072       25.5283122096       24.4764222274
 Au        27.6270785804       22.0164643429       22.0837586554
 Au        19.5618844354       23.2450923154       23.0657111348
 Au        25.3741049706       21.6899393775       26.3195601170
 Au        24.6935941979       22.3545707341       21.0520426309
 Au        22.1990191575       21.3131448636       21.9926255290
 Au        21.8093451079       19.4458634051       24.7357584222
 Au        22.7080827098       24.1879983709       22.1776957935
 Au        25.0900847602       23.6539299537       23.7664541747
 Au        24.5583787155       20.6826829612       23.2313476974
 Au        22.6275693193       22.7381475839       24.6189792430
  S        23.5885858338       19.1318101146       19.3137376993
  S        23.2993334334       27.1227820882       27.3193158585
  S        21.3721423769       29.2838561090       23.5863438486
  S        27.9780174221       20.1654941618       20.6618317654
  S        21.9165289325       17.5066015286       23.3984975120
  S        25.2440709841       23.6585787419       27.5976566563
  S        25.5191390934       27.6530298165       22.0782943954
  S        25.7095500153       23.8031568709       19.3691090917
  S        19.2267542938       24.9489211440       24.6657553303
  S        27.4914864306       23.9341912684       23.4306405201
  S        25.5699560177       19.6374267177       25.1688207929
  S        19.8425296233       21.5462269190       21.4606570104
  S        21.6434138383       21.2297468252       26.2562046051
  S        21.8524203500       25.7520926626       20.4759164086
  C        24.9790745594       27.8168988325       27.5761228205
  C        22.6268973936       30.4789727109       22.9760873991
  C        27.1519464876       27.7195656437       22.9148969957
  C        28.6724892864       20.9518231616       19.1517529153
  C        23.8490078317       17.5484790043       18.4125496911
  C        20.1641084954       25.2067130769       20.0154137974
  C        24.4106298235       24.0549239771       18.0972861164
  C        24.0074719393       23.2829175296       28.9008588868
  C        28.3139728974       23.4993078326       25.0118898624
  C        27.3582798008       19.4343229132       24.8105248507
  C        18.2936597978       26.2772920335       23.8079259074
  C        23.3040309575       16.5641659148       24.1478181727
  C        19.0051028099       20.0668682849       22.1522233831
  C        19.8502676156       21.5922011225       26.3925469974
  H        22.2416882000       30.9198454457       22.0495093873
  H        23.5849731705       29.9848973625       22.7838375946
  H        22.7458860061       31.2584850697       23.7369683201
  H        24.8842309340       28.7945564970       28.0624660512
  H        25.5159702108       27.9213319212       26.6290089888
  H        25.5252447021       27.1256149697       28.2294970547
  H        27.8914974115       28.0673090209       22.1840954756
  H        27.4409284132       26.7347095455       23.2963926598
  H        27.0786968709       28.4407260764       23.7367764620
  H        23.7032185740       24.2330731803       29.3560200580
  H        24.4816490801       22.6431210417       29.6538697634
  H        23.1331208335       22.7763766860       28.4789577379
  H        29.3835140763       23.3584728917       24.8200605706
  H        27.8787963423       22.5948964048       25.4544321153
  H        28.1654988017       24.3390575463       25.7011461547
  H        28.7288301975       20.1862669861       18.3699002188
  H        29.6792288382       21.3095504199       19.3957840913
  H        28.0479744282       21.7877686187       18.8203264207
  H        27.4714692650       18.5407901520       24.1854128923
  H        27.8884987106       19.2931897212       25.7590083978
  H        27.7586832467       20.3029615055       24.2714749216
  H        23.5433151756       15.7285427643       23.4810123863
  H        22.9567025871       16.1812745615       25.1143793720
  H        24.1820834536       17.2016124570       24.2952864304
  H        24.3707917741       17.7784930452       17.4764135195
  H        22.8630162479       17.1234940452       18.1919426644
  H        24.4374644110       16.8406981690       19.0023564492
  H        19.3774629694       20.7783569399       26.9538241121
  H        19.3864721300       21.6961894104       25.4043269523
  H        19.7431267663       22.5360196726       26.9399966585
  H        19.2440053540       19.2199962523       21.4975954855
  H        17.9242490251       20.2469280241       22.1505189011
  H        19.3542236990       19.8496511613       23.1686183623
  H        17.2854548828       25.9073024047       23.5903191828
  H        18.7949711244       26.5861642155       22.8836782178
  H        18.2363783497       27.1319480921       24.4924471810
  H        24.7761779456       24.7967524726       17.3778369301
  H        23.4778625490       24.4048594259       18.5517470286
  H        24.2492293743       23.0952346117       17.5933421471
  H        19.6840207388       26.0099100141       19.4451641457
  H        19.5686123863       24.9550049674       20.9020669345
  H        20.2644564790       24.3118762772       19.3895661015
