100
Energy =  -947.8499650627
 Au        23.5000349665       18.7884536151       23.5000031837
 Au        23.7088350657       19.7268720243       27.1628872333
 Au        27.0501542836       20.8889936714       24.1612655735
 Au        24.8318154037       21.2089879272       21.8604086756
 Au        23.2912062635       19.7268598461       19.8371069338
 Au        19.9498949978       20.8890116110       22.8387485977
 Au        22.1681975806       21.2089542427       25.1395961399
 Au        23.5000088118       23.0571433421       23.5000278361
 Au        24.9429709260       25.4942699326       26.7020159311
 Au        22.3980699994       23.8803503843       25.9856443487
 Au        22.0570480846       25.4942403648       20.2979606178
 Au        24.6019697248       23.8804240790       21.0144471280
 Au        23.5000119531       26.0695342753       23.4999673585
 Au        23.5000153854       29.1639250949       23.4999935652
 Au        21.6902885740       27.2680320994       26.1771832543
 Au        23.5553033057       22.9712560666       28.8091987038
 Au        24.7061545983       22.3611675702       25.9492064751
  S        24.3040000236       25.2114017546       28.9519070552
  S        22.5843255573       29.3856647894       25.6634189729
  S        25.6683660377       25.8316646227       24.4857205345
  S        22.8443666589       20.7410635576       29.1086915828
  S        24.8100962675       18.5112443787       25.4579789219
  S        27.0382413767       20.2079481994       21.9108382145
  S        20.6597256404       25.2820109618       26.8891241208
  S        27.0154015233       21.6757393807       26.3782377871
  C        26.4950116909       27.4659258880       24.4361531566
  C        21.0237042923       20.8074928315       28.8842964583
  C        28.0300937910       23.2058386370       26.3125564734
  C        24.0278614469       29.5109130551       26.7936894299
  C        25.8821592679       25.0664468987       29.8836179628
  C        19.2571676205       25.0090389121       25.7330927558
  C        26.8881195714       18.3807174785       21.9174243582
  C        24.4932916769       16.7559594829       25.9107500409
 Au        25.3097502819       27.2680043670       20.8227664701
 Au        23.4447258003       22.9712187356       18.1907844601
 Au        22.2939065275       22.3612291125       21.0508045645
  S        22.6960423196       25.2113677605       18.0480810199
  S        24.4157127556       29.3856253095       21.3365682988
  S        21.3316436822       25.8316362604       22.5142490247
  S        24.1556597154       20.7410271892       17.8912879504
  S        22.1899744264       18.5112342994       21.5420297410
  S        19.9617471145       20.2079608899       25.0891761605
  S        26.3403180611       25.2819872059       20.1108247439
  S        19.9846881037       21.6757543996       20.6217757972
  C        20.5050303722       27.4659122437       22.5638300333
  C        25.9763196957       20.8074657365       18.1157054689
  C        18.9699626568       23.2058303676       20.6874423163
  C        22.9721845724       29.5108935857       20.2062910887
  C        21.1178782147       25.0664128378       17.1163804853
  C        27.7428540114       25.0090215485       21.2668823279
  C        20.1119073128       18.3807335230       25.0825956238
  C        22.5067595969       16.7559371074       21.0892864811
  H        18.8565240812       24.0091256025       25.9377810102
  H        19.5830002261       25.0645705678       24.6894997385
  H        18.4910019958       25.7651415506       25.9383810890
  H        20.6415181671       19.7831152361       28.9595627446
  H        20.7580781564       21.2366293586       27.9126722926
  H        20.6126292105       21.4173827138       29.6965230334
  H        26.3813842520       26.0415728736       29.8562101560
  H        26.5329029094       24.2990847142       29.4553598598
  H        25.6337387795       24.8058568684       30.9190231461
  H        27.3864547190       27.4156745220       25.0715696353
  H        25.8298193143       28.2706696960       24.7692345677
  H        26.7846478353       27.6494144084       23.3922253434
  H        29.0824264312       22.9133984972       26.2217019597
  H        27.8751589597       23.7509195105       27.2513972696
  H        27.7391494547       23.8433671332       25.4727487670
  H        24.9163577654       16.1209893709       25.1239497859
  H        23.4240821107       16.5541256513       26.0191007500
  H        25.0076416015       16.5615082183       26.8589676603
  H        28.1434972423       24.0091049189       21.0622101995
  H        27.4169844498       25.0645565780       22.3104629400
  H        28.5090278748       25.7651213051       21.0616176934
  H        27.8494536900       17.9562432477       22.2289639400
  H        26.6535086969       18.0638908223       20.8942589556
  H        26.0916811050       18.0540351058       22.5968414530
  H        26.3585087405       19.7830880819       18.0404547571
  H        26.2419211889       21.2366076912       19.0873335913
  H        26.3874101105       21.4173520341       17.3034843960
  H        22.0836865269       16.1209907912       21.8761023396
  H        23.5759660031       16.5540823272       20.9809368519
  H        21.9924041490       16.5614707173       20.1410748415
  H        20.6186586531       26.0415411879       17.1437941562
  H        20.4671374695       24.2990561547       17.5446526159
  H        21.3662829598       24.8058173876       16.0809732505
  H        19.1505879840       17.9562229270       24.7710592131
  H        20.3465323209       18.0639216484       26.1057620670
  H        20.9083577387       18.0540798307       24.4031796812
  H        17.9176394912       22.9133584093       20.7782968619
  H        19.1248853123       23.7509085355       19.7485978100
  H        19.2608865736       23.8433740966       21.5272459009
  H        19.6135803102       27.4156956868       21.9284208171
  H        21.1702470005       28.2706362824       22.2307499162
  H        20.2154122143       27.6494017048       23.6077625271
  H        24.6180764465       30.3863857895       26.5015889533
  H        24.6402176621       28.6021855220       26.7649342970
  H        23.6331540645       29.6507429457       27.8068316242
  H        22.3819791201       30.3863723091       20.4983927235
  H        22.3598145152       28.6021745540       20.2350339862
  H        23.3669029357       29.6507248760       19.1931532970
