103
Energy =  -1047.6697663835
 Au        23.5003738548       23.4988333862       23.4989666136
 Au        26.1662424420       24.3720462091       23.3399922059
 Au        25.5604948243       21.8075581234       24.3586304435
 Au        22.4320784244       21.0823056566       21.4980407333
 Au        24.1462786610       26.5056303016       22.8383351456
 Au        25.1655603134       22.3463982255       21.5980893948
 Au        23.0200335731       24.2920549816       20.2126329603
 Au        24.6363828278       19.8795934941       19.1709203161
 Au        24.2769819115       19.1870539778       22.1710031848
 Au        26.7214891654       18.7977677908       23.8962518820
 Au        20.0832551198       19.2676315471       23.2165333691
 Au        22.1006192804       17.7939121864       20.6528773393
 Au        20.8343339315       22.6259332636       23.6583092135
 Au        21.4403110927       25.1905692143       22.6400297242
 Au        24.5692239993       25.9155634812       25.5012277966
 Au        22.8546266678       20.4925274190       24.1610335406
 Au        21.8357934799       24.6511668682       25.4003220481
 Au        23.9816284972       22.7057651165       26.7864767339
 Au        22.3649189214       27.1177846868       27.8280789012
 Au        22.7242234997       27.8109367352       24.8285214007
 Au        20.2804763471       28.2010512056       23.1024172540
 Au        26.9186451388       27.7297004827       23.7824354466
 Au        24.9010093531       29.2036304419       26.3464522586
  S        21.7214509106       22.4092585736       19.5963890107
  S        26.1675905248       21.6311343912       19.5174536529
  S        18.8767711400       21.2023467354       23.7999456322
  S        24.4121740072       26.1991733517       20.4420480380
  S        27.1629852506       20.3876251723       25.5621414670
  S        25.9987249392       17.4052548546       22.1353848140
  S        23.1211448449       18.1666360951       18.5573926823
  S        21.0282283587       17.1783119896       22.6607528734
  C        23.4267255118       27.5509391573       19.6842389493
  C        19.9756556911       22.8840427272       19.9015077971
  C        19.5941335321       16.1480155636       22.1448518318
  C        18.6433972699       21.0550432261       25.6175912855
  C        25.1567394203       15.9848468476       22.9442239729
  C        27.7038726081       20.7859059616       20.0705191838
  C        24.2354984396       16.7158223293       18.3776847277
  C        28.8085933519       21.0947291909       25.1488460620
  S        25.2804802479       24.5884274298       27.4025408201
  S        20.8340272747       25.3660059443       27.4812581213
  S        28.1243384725       25.7948269576       23.1979991702
  S        22.5890511703       20.7989359675       26.5573598794
  S        19.8398067011       26.6119025677       21.4356663982
  S        21.0024078089       29.5927642569       24.8642288768
  S        23.8797678043       28.8310754477       28.4416507699
  S        25.9743536717       29.8190919259       24.3390406438
  C        23.5744298065       19.4469927032       27.3149832948
  C        27.0262336252       24.1134077815       27.0974366749
  C        27.4087037364       30.8487479846       24.8555293224
  C        28.3572723619       25.9425881523       21.3803269155
  C        21.8446054132       31.0136526647       24.0564438622
  C        19.2976030874       26.2113763549       26.9287783087
  C        22.7652927521       30.2818397305       28.6210317505
  C        18.1933056051       25.9056542500       21.8467907125
  H        23.3956413650       27.3902774402       18.6003932407
  H        23.9341542952       28.4971193185       19.9054435375
  H        22.4085873514       27.5768535078       20.0854836614
  H        19.6970821507       23.6645187401       19.1842866532
  H        19.8478415786       23.2496880764       20.9271798632
  H        19.3594164236       21.9912353527       19.7436329532
  H        19.9798933498       15.2039791419       21.7427683361
  H        18.9904629184       16.6550085891       21.3872961145
  H        18.9837338358       15.9502594074       23.0337904628
  H        17.9163302533       20.2582253014       25.8106473134
  H        18.2508349363       22.0125485726       25.9795347258
  H        19.5894287593       20.8345856291       26.1238573053
  H        24.5116853587       15.5115148876       22.1940346829
  H        24.5405847611       16.3146184491       23.7853998582
  H        25.9165559814       15.2739958944       23.2883627202
  H        28.1262899258       20.2382659869       19.2204249968
  H        27.5084172976       20.0991297184       20.9007386275
  H        28.4046522612       21.5635267030       20.3964214433
  H        24.8463342494       16.8698586410       17.4805934687
  H        23.6148987990       15.8210062692       18.2555548434
  H        24.8847415256       16.6076340702       19.2530102791
  H        29.5759725884       20.3440462531       25.3692839155
  H        28.9599865160       21.9771538048       25.7819174657
  H        28.8602011968       21.3901274242       24.0971986867
  H        23.0667065398       18.5009149797       27.0940134608
  H        23.6059004567       19.6077141076       28.3988113255
  H        24.5924260490       19.4208086868       26.9133990959
  H        27.6426220122       25.0060773501       27.2555258397
  H        27.1541017138       23.7478717109       26.0717387657
  H        27.3046094615       23.3327819876       27.8145775620
  H        28.0193143166       31.0466213637       23.9667575509
  H        28.0121128670       30.3413475636       25.6130229960
  H        27.0231597498       31.7927742802       25.2578465925
  H        28.7497130285       24.9851630978       21.0180310905
  H        29.0843537135       26.7394116653       21.1873539378
  H        27.4111553483       26.1632491786       20.8743053220
  H        21.0848849053       31.7247042429       23.7125028217
  H        22.4609948793       30.6843726649       23.2152475051
  H        22.4894466291       31.4865583551       24.8070856995
  H        18.5967330189       25.4339002511       26.6027248515
  H        19.4928921735       26.8984858344       26.0987973421
  H        18.8753943622       26.7586964240       27.7791840734
  H        23.3858458862       31.1767012120       28.7430680138
  H        22.1544154198       30.1279037696       29.5181134123
  H        22.1160785374       30.3898694003       27.7456511518
  H        18.0421773966       25.0234929269       21.2132909334
  H        17.4266363022       26.6568488063       21.6256263912
  H        18.1402665530       25.6100258721       22.8982983809
