124
Energy =  -1151.5911464745
 Au        22.1105023906       24.9258099976       24.7588541441
 Au        22.1106875442       22.1554026352       24.2133699848
 Au        18.9862650387       24.1440922389       26.8076535868
 Au        19.1736004501       26.6323686913       24.1293852114
 Au        22.2592922478       27.1245807109       22.4170021719
 Au        24.9052681257       22.9645802843       24.9059106019
 Au        22.2696805117       22.7157064010       27.2301605779
 Au        19.8128142011       23.7099263406       23.7502909090
 Au        21.9380601372       25.7047391164       28.2561899131
 Au        16.2611347618       23.3523046423       28.3710621389
 Au        18.7676720623       25.1870787768       29.9336170500
 Au        16.8374550619       22.2856349668       25.0843551949
  S        16.4283332620       25.2983559767       29.6885945820
  S        19.9987861935       22.0438326101       27.2797762214
  S        17.5944727715       23.1192246687       23.0302452061
  S        23.0048534407       26.5383425563       26.3380068439
  S        18.1876971357       26.3134854011       26.2427370312
  S        21.0738396740       25.0433759744       30.3452582711
  S        16.0032214384       21.3909370892       27.0969661302
  S        19.9413097770       27.2209001051       21.9764817027
  S        24.6010627605       23.1340591916       27.2852291023
  S        22.4180783825       19.7594062086       24.1869362199
  C        22.1659231539       28.1377498004       26.0129498362
  C        19.5824879618       29.0217152089       21.8643471802
  C        17.8759974327       21.6265360016       21.9947226235
  C        16.4120914271       26.1225025190       25.8144725916
  C        21.7222277116       19.1263091057       25.7614242230
  C        21.4393783467       26.4635433013       31.4538816136
  C        14.1885550330       21.2407786524       26.8388646190
  C        15.7591176096       24.8088805705       31.3299781989
  C        19.6699310076       21.6381380004       29.0384579597
  C        25.3141194965       21.5923233495       27.9785460774
 Au        24.8873753250       22.0750804486       22.2373219949
 Au        24.8866850245       24.8454712132       22.7828682936
 Au        28.0111846260       22.8577422737       20.1882473866
 Au        27.8246103660       20.3691450419       22.8658909567
 Au        24.7386071484       19.8765072951       24.5788106343
 Au        22.0921028017       24.0362766285       22.0903127493
 Au        24.7273603729       24.2854453967       19.7661646376
 Au        27.1847446393       23.2913041318       23.2461032072
 Au        25.0587223207       21.2964445915       18.7399813575
 Au        30.7351252366       23.6504967763       18.6242606980
 Au        28.2279478761       21.8158043216       17.0611770803
 Au        30.1598027975       24.7160246201       21.9122829917
  S        30.5674462937       21.7056260003       17.3050445105
  S        26.9981085548       24.9578443875       19.7167876905
  S        29.4029278990       23.8822345159       23.9663672960
  S        23.9933945386       20.4619550745       20.6585649162
  S        28.8103861276       20.6884556342       20.7525301959
  S        25.9215392422       21.9582176516       16.6504807114
  S        30.9938288758       25.6109179824       19.8996824578
  S        27.0567483881       19.7800246130       25.0185944781
  S        22.3960992098       23.8664217121       19.7110157800
  S        24.5796761278       27.2415557996       22.8096543355
  C        24.8336913430       18.8631291927       20.9829912817
  C        27.4153093034       17.9791300943       25.1300472919
  C        29.1208564030       25.3747478262       25.0020153860
  C        30.5860463630       20.8797636719       21.1804523214
  C        25.2760321337       27.8750928375       21.2355674004
  C        25.5563628381       20.5375456403       15.5423523767
  C        32.8086114918       25.7604214602       20.1573096045
  C        31.2355066332       22.1968070514       15.6636898830
  C        27.3268702787       25.3641289979       17.9582450861
  C        21.6824869123       25.4078166150       19.0175262820
  H        14.0222816282       20.4305108751       26.1197448756
  H        13.7586739254       22.1706223276       26.4576749424
  H        13.7313109597       20.9817653137       27.8004993956
  H        18.3745606627       21.9568622449       21.0759678584
  H        16.9012127583       21.1872973952       21.7541985963
  H        18.5048897558       20.8952826425       22.5096423787
  H        14.6773190318       24.6694343931       31.2238633251
  H        15.9596399990       25.6287913365       32.0291030873
  H        16.2217579879       23.8875297020       31.6930676770
  H        22.5272007738       26.5141787444       31.5779869877
  H        20.9637459231       26.2677419322       32.4215573236
  H        21.0681841687       27.4030691205       31.0362793635
  H        22.5610316558       28.5247649080       25.0647089394
  H        22.4142500759       28.8211309339       26.8326875152
  H        21.0802607849       28.0152574681       25.9334016238
  H        30.0954753213       25.8141425636       25.2429147974
  H        28.6220361577       25.0442007545       25.9205495128
  H        28.4919857509       26.1059470908       24.4869885222
  H        24.9887109640       28.9275187614       21.1335005482
  H        24.9136783195       27.2931316620       20.3811613005
  H        26.3669965873       27.7849505581       21.2945572006
  H        20.0422757709       29.3989738355       20.9436592992
  H        19.9766700703       29.5656366517       22.7270021790
  H        18.4945512949       29.1438397187       21.8105165738
  H        16.0680254457       27.0711901353       25.3877368954
  H        15.8680612425       25.9088203778       26.7427585786
  H        16.2578785995       25.3050388408       25.1025639821
  H        21.9531048881       25.4589875485       17.9568452708
  H        22.0511943360       26.2915417768       19.5502564186
  H        20.5930213016       25.3501529067       19.1249214045
  H        26.7942641176       26.2955111787       17.7333895512
  H        26.9960395853       24.5686830838       17.2838205173
  H        28.4082914328       25.5148319974       17.8484938117
  H        31.1297914382       21.0938062502       20.2520755538
  H        30.9304506908       19.9310612695       21.6068790133
  H        30.7402206009       21.6971129703       21.8925024033
  H        33.2656559336       26.0196043865       19.1956251018
  H        33.2383134553       24.8303181850       20.5380668429
  H        32.9753535836       26.5704032867       20.8766435025
  H        31.0346241327       21.3775595770       14.9638885168
  H        32.3173549395       22.3363009701       15.7692134201
  H        30.7724987494       23.1184465179       15.3017934746
  H        26.0316101370       20.7332937625       14.5744767407
  H        24.4685288226       20.4863396689       15.4185913497
  H        25.9281453251       19.5983245846       15.9601158936
  H        28.5032427292       17.8567787621       25.1834679621
  H        27.0207366923       17.4355370342       24.2673634902
  H        26.9557730067       17.6016694857       26.0507778879
  H        20.6312179198       19.2159631275       25.7025339026
  H        22.0844421195       19.7088571185       26.6154966676
  H        22.0100075906       18.0740571816       25.8639770730
  H        26.4036216755       21.6496849695       27.8713524688
  H        24.9452511173       20.7088019795       27.4455821893
  H        25.0433022434       21.5410268029       29.0391694291
  H        18.5884813704       21.4877248471       29.1482566442
  H        20.0009934258       22.4336682651       29.7126599056
  H        20.2023185899       20.7066888942       29.2635602918
  H        24.5853251406       18.1796314320       20.1633619848
  H        24.4394819763       18.4757624611       21.9314674243
  H        25.9193194646       18.9863890270       21.0618475596
