115
Energy =  -1149.4286194544
 Au        23.3938008710       26.3728835455       23.1810670759
 Au        26.4541258767       27.6503043457       24.0802788109
 Au        28.2514156917       24.6803531270       24.8552151028
 Au        25.8617045226       22.1997494379       24.5075767363
 Au        21.8926114916       24.9947639164       25.3936093189
 Au        20.4935207237       27.6353881871       23.7215187842
 Au        21.8977192496       27.2376725149       20.4349667473
 Au        23.7986516112       24.4010464739       20.7944675360
 Au        25.0236319469       25.0622834497       25.3608316147
 Au        23.1288240274       25.0759765439       28.2747272963
 Au        20.2170086155       23.2125753932       27.4414835735
 Au        21.0122996291       22.2366606079       24.2781985718
 Au        23.6037015149       20.6258800208       23.8199565589
 Au        20.5436505529       19.3481030909       22.9208276696
 Au        18.7464317881       22.3179580555       22.1454947201
 Au        21.1360259711       24.7989997872       22.4931020413
 Au        25.1050645652       22.0041450883       21.6071952965
 Au        26.5038603903       19.3633940229       23.2792166160
 Au        25.0993834304       19.7610810451       26.5657909122
 Au        23.1989449369       22.5978869663       26.2063499470
 Au        21.9742277002       21.9361867757       21.6400501220
 Au        23.8691133976       21.9229755556       18.7261006388
 Au        26.7806542435       23.7869220902       19.5593054774
 Au        25.9853367964       24.7622352463       22.7225392544
 Au        23.4988535047       23.4993763293       23.5003981774
  S        24.3013274537       28.5615101770       23.8136653200
  S        28.6892941633       26.9239574738       24.2684630341
  S        28.0988426484       22.4064500994       25.4440233066
  S        20.3719720898       26.8453958916       25.9367154653
  S        20.4902662628       28.7096516042       21.6241976471
  S        23.4173236816       26.0595560638       19.0723281235
  S        25.3562785582       25.5817499889       27.7034165164
  S        20.9313652603       24.7627287412       29.0704660279
  S        19.2670488571       21.6925331447       25.9206926129
  C        24.4095441268       29.6208885095       22.3181405953
  H        23.3921662584       29.9518241198       22.0763859064
  H        24.8253372398       29.0714809188       21.4688124458
  C        29.3487964339       27.7000237910       25.7969000106
  H        29.3842074907       28.7840003531       25.6391981182
  H        30.3632384669       27.3146989491       25.9532775593
  C        27.8745276295       22.4511264597       27.2639737088
  H        27.4771178394       21.4755104783       27.5743367300
  H        27.1834566045       23.2479991937       27.5577394111
  C        21.3761266452       28.0912989368       26.8374812420
  H        22.3094887249       28.3068194415       26.3072094492
  H        21.5939946149       27.6857971601       27.8338201790
  C        18.8035487605       28.4103346497       20.9655941237
  H        18.5139482203       27.3596513174       21.0763856112
  H        18.7911320494       28.7040412729       19.9101441994
  C        22.4066780996       25.2981868097       17.7441160740
  H        23.0245281868       24.5355433009       17.2534288402
  H        22.1332405553       26.0817353023       17.0279198209
  C        25.4500385841       27.4109834316       27.8251943443
  H        26.3816532730       27.7306056235       27.3425602607
  H        25.4599840635       27.6853883341       28.8863212563
  C        21.0959393995       23.7797609453       30.6131511333
  H        21.6340129696       22.8435830974       30.4384017647
  H        20.0837658275       23.5590968785       30.9723811833
  C        19.7566935050       20.0550294553       26.5908808763
  H        19.5728119989       19.3115357388       25.8041160071
  H        19.1285239687       19.8403198444       27.4630630303
  S        22.6963937565       18.4369485777       23.1879840589
  S        18.3085055647       20.0743312409       22.7320713159
  S        18.8989475044       24.5918259313       21.5566266310
  S        26.6258446741       20.1536358563       21.0641334140
  S        26.5063715971       18.2887860676       25.3763587461
  S        23.5800460441       20.9394217033       27.9285665859
  S        21.6417885796       21.4166393143       19.2974522321
  S        26.0665367937       22.2365949268       17.9304073168
  S        27.7304846976       25.3070218723       21.0801032518
  C        22.5879073057       17.3780794056       24.6838616944
  H        21.9596466466       16.5107669756       24.4511987189
  H        22.1720984199       17.9278122010       25.5329728969
  C        17.6495822201       19.2983426114       21.2033451175
  H        17.6142149864       18.2143466530       21.3609206079
  H        18.2689389502       19.5296507915       20.3321722268
  C        19.1233681143       24.5470733351       19.7366944929
  H        19.5206771525       25.5227226289       19.4263054164
  H        18.1434510498       24.3779043736       19.2750716167
  C        25.6218624987       18.9078196759       20.1630460980
  H        26.2167132479       17.9914931715       20.0726359294
  H        25.4040861561       19.3134610398       19.1667442401
  C        28.1930931101       18.5871318346       26.0353601028
  H        28.4832306642       19.6376976385       25.9248850711
  H        28.8833746813       17.9536510081       25.4660453017
  C        24.5908898171       21.7007553839       29.2566429565
  H        25.4897644844       22.1768748788       28.8573133032
  H        24.8643496149       20.9172137870       29.9728380854
  C        21.5485691848       19.5873715283       19.1757068246
  H        22.3935142028       19.1103467241       19.6804709317
  H        21.5386792424       19.3129498661       18.1145833329
  C        25.9019425729       23.2194168658       16.3876360473
  H        25.3709312276       22.6101970475       15.6475838467
  H        26.9141189429       23.4402892066       16.0285404963
  C        27.2405417150       26.9445410559       20.4101567837
  H        26.1845868139       26.9589474514       20.1219100584
  H        27.8686901467       27.1595337676       19.5380319576
  H        25.0377244418       30.4882004916       22.5510232875
  H        28.7297195436       27.4688654084       26.6683110190
  H        28.8544963145       22.6201484316       27.7255429379
  H        20.7813347171       29.0076701162       26.9278230441
  H        18.1130651271       29.0436234735       21.5348728666
  H        21.5077890991       24.8220036581       18.1433353723
  H        24.6052536592       27.8882658168       27.3204054728
  H        21.6272134426       24.3887913102       31.3531696480
  H        20.8126504576       20.0404575416       26.8791043618
  H        23.6052227063       17.0471021310       24.9258207091
  H        16.6351622124       19.6835976296       21.0466568507
  H        19.8145568708       23.7502695547       19.4430180258
  H        24.6884551279       18.6921655669       20.6931789624
  H        28.2051799866       18.2931460732       27.0907355054
  H        23.9731340518       22.4634523286       29.7473678442
  H        20.6170662046       19.2674680632       19.6583694829
  H        25.3636199131       24.1554801716       16.5622227302
  H        27.4242322948       27.6879391180       21.1970602610
