115
Energy =  -1149.4281016554
 Au        23.3949854627       26.3730865185       23.1807993558
 Au        26.4549988831       27.6511025710       24.0801241880
 Au        28.2525972653       24.6809037655       24.8546819648
 Au        25.8627195948       22.2000714092       24.5065099821
 Au        21.8931819310       24.9956437377       25.3924144282
 Au        20.4937412136       27.6360636463       23.7213131742
 Au        21.8982950063       27.2383210470       20.4342810149
 Au        23.7996909530       24.4026172818       20.7945224119
 Au        25.0244804263       25.0631936054       25.3605432698
 Au        23.1295903319       25.0761737268       28.2740573427
 Au        20.2175409092       23.2131659863       27.4413205448
 Au        21.0135008224       22.2377114226       24.2781519136
 Au        23.6041275608       20.6267129102       23.8194680701
 Au        20.5443820932       19.3483498092       22.9202311986
 Au        18.7468520846       22.3184426793       22.1452693746
 Au        21.1366147386       24.7997184366       22.4934162816
 Au        25.1060932900       22.0042920043       21.6076418103
 Au        26.5052442071       19.3637469720       23.2786710375
 Au        25.1004080224       19.7614594134       26.5657271614
 Au        23.1995016413       22.5973433583       26.2055438557
 Au        21.9749750200       21.9363128022       21.6395817720
 Au        23.8699385553       21.9238123595       18.7260161299
 Au        26.7817227615       23.7873505213       19.5587133165
 Au        25.9857242976       24.7622207381       22.7218288583
 Au        23.4996500689       23.4998922767       23.5000232431
  S        24.3021383273       28.5620042772       23.8131470393
  S        28.6901100619       26.9245917147       24.2680073483
  S        28.0993043630       22.4070911668       25.4436870162
  S        20.3726472202       26.8461107702       25.9366952001
  S        20.4911663416       28.7102113928       21.6238591082
  S        23.4180152638       26.0598225810       19.0719849904
  S        25.3569466267       25.5820493106       27.7028497700
  S        20.9322259163       24.7634075854       29.0700089905
  S        19.2677909869       21.6930419994       25.9204720209
  C        24.4104061499       29.6213736750       22.3177492459
  H        23.3930127875       29.9522803124       22.0760781392
  H        24.8261988093       29.0722097160       21.4682749831
  C        29.3496511075       27.7005678651       25.7966141125
  H        29.3850054218       28.7845274061       25.6389278928
  H        30.3640691818       27.3152445832       25.9529437434
  C        27.8751081462       22.4516789124       27.2636169045
  H        27.4777835748       21.4760261671       27.5739456826
  H        27.1840450011       23.2485034524       27.5574020539
  C        21.3769960535       28.0920196522       26.8372178348
  H        22.3103349502       28.3076024687       26.3069528499
  H        21.5949072472       27.6864854571       27.8335185636
  C        18.8043950453       28.4108213980       20.9652255350
  H        18.5151115737       27.3601167395       21.0763238580
  H        18.7916894012       28.7043029577       19.9097177972
  C        22.4075015327       25.2985424674       17.7436890135
  H        23.0253507410       24.5360150649       17.2528309756
  H        22.1341957272       26.0823294611       17.0277452605
  C        25.4505934359       27.4113276177       27.8246046516
  H        26.3822038289       27.7310185096       27.3420442607
  H        25.4605759369       27.6855684670       28.8857722277
  C        21.0967411558       23.7803473136       30.6127742338
  H        21.6347558670       22.8441927396       30.4379094700
  H        20.0845045987       23.5597270795       30.9717878060
  C        19.7574993684       20.0554746558       26.5905585535
  H        19.5736477977       19.3120928945       25.8037046008
  H        19.1292738735       19.8406410651       27.4626613859
  S        22.6971860933       18.4374933901       23.1877424999
  S        18.3092891727       20.0747302740       22.7317740552
  S        18.9000875918       24.5922260381       21.5562111905
  S        26.6267758489       20.1539499481       21.0633979828
  S        26.5070749309       18.2892635455       25.3759544734
  S        23.5809686392       20.9401810570       27.9281594910
  S        21.6427120743       21.4173763791       19.2972625003
  S        26.0672689788       22.2369388998       17.9301072256
  S        27.7313376938       25.3075297810       21.0795765024
  C        22.5886451415       17.3786289446       24.6834888742
  H        21.9604629029       16.5113215317       24.4506966722
  H        22.1728346900       17.9281207356       25.5327419821
  C        17.6503231169       19.2988262775       21.2028791327
  H        17.6150129942       18.2148489511       21.3604456242
  H        18.2697212691       19.5301977430       20.3317846892
  C        19.1243813550       24.5475583813       19.7362974596
  H        19.5216013497       25.5232443089       19.4259390126
  H        18.1444645450       24.3783975863       19.2746757222
  C        25.6226021793       18.9081229853       20.1625636080
  H        26.2174850645       17.9918543209       20.0720938241
  H        25.4047772346       19.3137990699       19.1663007750
  C        28.1938577758       18.5876907823       26.0349712190
  H        28.4836685369       19.6382804705       25.9241898851
  H        28.8840873302       17.9542403393       25.4656134708
  C        24.5916758857       21.7014284267       29.2563220943
  H        25.4905749825       22.1775224477       28.8571154083
  H        24.8649989893       20.9176512906       29.9722682302
  C        21.5496058009       19.5880648706       19.1755437464
  H        22.3945787043       19.1109961050       19.6801713800
  H        21.5396803376       19.3138024625       18.1143812058
  C        25.9027334919       23.2198608888       16.3872588654
  H        25.3717863336       22.6107554978       15.6470883738
  H        26.9149711381       23.4406949517       16.0283780292
  C        27.2413320449       26.9451068475       20.4097302866
  H        26.1854134263       26.9596563434       20.1214088903
  H        27.8695456960       27.1602102364       19.5376839262
  H        25.0385053756       30.4886817200       22.5507631029
  H        28.7305301485       27.4693445674       26.6679451465
  H        28.8550750519       22.6206860625       27.7251893658
  H        20.7821658568       29.0083307791       26.9276155781
  H        18.1139640294       29.0440788448       21.5345520840
  H        21.5085879525       24.8223844116       18.1427867398
  H        24.6057809721       27.8886586192       27.3199558702
  H        21.6279437174       24.3892719555       31.3529104049
  H        20.8134247396       20.0407737306       26.8788454750
  H        23.6059724966       17.0476762385       24.9253735768
  H        16.6359260487       19.6840788413       21.0462401019
  H        19.8155636787       23.7508032033       19.4426037623
  H        24.6892150903       18.6924134313       20.6926883597
  H        28.2062293108       18.2939336235       27.0904069695
  H        23.9739197865       22.4640116730       29.7472133013
  H        20.6181077936       19.2680945621       19.6581351575
  H        25.3644735791       24.1559024016       16.5619754257
  H        27.4250131816       27.6883980228       21.1967121819
