120
Energy =  -1315.6112828499
 Au        21.2717141953       19.3994691665       21.6237408305
 Au        23.4021725908       21.1935640213       21.5023746668
 Au        22.1963093998       23.7948740390       17.0926222923
 Au        20.2491144486       16.7647569637       21.2218870420
 Au        23.9941261249       24.1922193581       19.9880388783
  C        26.4686634751       21.9972628913       20.4833882115
  C        21.6000136106       14.8466847098       23.6708213608
  C        24.0062759267       26.5509993831       17.5895639539
  S        25.1869223039       22.8375672017       21.4972247919
  S        22.0666961901       15.3824858697       21.9753715458
  S        22.7569882017       25.5881208112       18.5372393921
 Au        21.4743321798       21.4218228060       19.3989139182
 Au        21.3506714377       23.5533035960       21.1920038253
 Au        16.9434596214       22.3439144086       23.7944896639
 Au        21.0751843614       20.3977311806       16.7638596229
 Au        19.8365739754       24.1443874966       24.1908021206
  C        20.3286815058       26.6192401186       21.9953682291
  C        23.5261083974       21.7472033594       14.8453971728
  C        17.4383910478       24.1553229735       26.5498740063
  S        21.3440323599       25.3385388227       22.8354662978
  S        21.8303531670       22.2138347230       15.3803719646
  S        18.3873969130       22.9064506139       25.5877744648
 Au        19.2492155754       21.6246510544       21.4210377847
 Au        21.0426251591       21.5014867501       23.5524298001
 Au        23.6472461841       17.0947866347       22.3434404595
 Au        16.6152871307       21.2265898409       20.3955457648
 Au        24.0416187624       19.9866738491       24.1455618173
  C        21.8435385553       20.4796062229       26.6189686320
  C        14.6949632523       23.6734767239       21.7488805538
  C        26.4017115058       17.5882379938       24.1563835690
  S        22.6851426388       21.4941063631       25.3385579558
  S        15.2316248961       21.9776203974       22.2130087100
  S        25.4400226635       18.5384703952       22.9080259661
 Au        18.5911435813       20.7714582944       18.5507764461
 Au        16.4664599639       18.9692520463       18.6764230987
 Au        17.6869627529       16.3777163852       23.0702281822
 Au        19.6364746172       23.3998362183       18.9303567301
 Au        15.8915751574       15.9664080493       20.1862872543
  C        13.4056826276       18.1526772250       19.7023082071
  C        18.2754432143       25.2990872601       16.4713001739
  C        15.9024705986       13.6021286154       22.5805776857
  S        14.6875776437       17.3185137240       18.6836628745
  S        17.8192185499       24.7818816674       18.1753497927
  S        17.1421368504       14.5751382157       21.6304764035
 Au        18.4021703289       18.7403652060       20.7710963461
 Au        18.5259413491       16.6166933346       18.9676520126
 Au        22.9221060804       17.8347951708       16.3778163269
 Au        18.7817464539       19.7862804870       23.3985922693
 Au        20.0362838006       16.0405103702       15.9651508061
  C        19.5476074334       13.5548607866       18.1507614762
  C        16.3256163781       18.4218273152       25.2979182963
  C        22.4322242856       16.0496992098       13.6025069469
  S        18.5312629300       14.8383368062       17.3162557078
  S        18.0296945005       17.9671590466       24.7795776144
  S        21.4825380435       17.2899879691       14.5751396934
 Au        20.6221819031       18.5521432289       18.7401808735
 Au        18.8199893329       18.6756728532       16.6158260994
 Au        16.2302927292       23.0719480470       17.8330674230
 Au        23.2502829072       18.9340457298       19.7851214020
 Au        15.8177229534       20.1839603923       16.0405782247
  C        18.0013040034       19.6948639357       13.5536131915
  C        25.1483995188       16.4743313708       18.4239723518
  C        13.4554229392       22.5793250948       16.0486694664
  S        17.1681390431       18.6786496143       14.8380535333
  S        24.6312799008       18.1782985774       17.9672737059
  S        14.4282553653       21.6309743747       17.2897434730
  H        27.2554280560       22.7254145847       20.2550659665
  H        26.0477592427       21.5922802304       19.5585591222
  H        26.8786616513       21.1800501218       21.0887638924
  H        20.7483551899       14.1630224987       23.5755221190
  H        21.3162427726       15.6987204547       24.2947504114
  H        22.4535502091       14.3212250742       24.1139286226
  H        23.4857472694       27.0706289286       16.7768962213
  H        24.7853162149       25.9035276404       17.1786050531
  H        24.4521049879       27.2832794661       18.2727027373
  H        20.9339301572       27.0307664517       21.1788223111
  H        20.0987210395       27.4051489873       22.7239013291
  H        19.4047287705       26.1971958204       21.5895332391
  H        23.4310422074       20.8965034691       14.1604970766
  H        24.1493385445       21.4620856185       15.6974965909
  H        23.9699657307       22.6012261012       14.3213403619
  H        16.6261911808       23.6342605889       27.0697130547
  H        17.0266990860       24.9335796594       25.9019272796
  H        18.1209797896       24.6022874682       27.2819837848
  H        21.0270200479       21.0855347462       27.0295723517
  H        22.5712619304       20.2495671205       27.4056012574
  H        21.4374788247       19.5557154936       26.1970018106
  H        14.0105947878       23.5790338528       20.8976846876
  H        15.5465470884       24.2980689214       21.4652165153
  H        14.1700259880       24.1153325848       22.6033912606
  H        26.9207919855       16.7758505757       23.6348407479
  H        25.7537139300       17.1766595053       24.9346600659
  H        27.1345224021       18.2700304959       24.6034185057
  H        12.9903532648       18.9685505747       19.0987153629
  H        13.8278340913       18.5589981740       20.6259744032
  H        12.6225154302       17.4213358070       19.9326719000
  H        17.4208170797       25.8237428716       16.0293186234
  H        18.5507404772       24.4395759523       15.8538712832
  H        19.1307001228       25.9799868135       16.5532645506
  H        15.4618957469       12.8656027204       21.8985802697
  H        15.1185161390       14.2430560055       22.9924345602
  H        16.4286150501       13.0873764354       23.3927611305
  H        19.7767888541       12.7711738896       17.4195815499
  H        18.9431432170       13.1407936233       18.9666177539
  H        20.4718887330       13.9755554250       18.5571441014
  H        15.8852303151       17.5671745680       25.8238641286
  H        15.7070601519       18.6953977788       24.4386597666
  H        16.4071382945       19.2779445872       25.9777748324
  H        21.7503239955       15.6101124862       12.8653087568
  H        22.8427479345       15.2650976485       14.2434877616
  H        23.2453569446       16.5751898090       13.0885739928
  H        17.2694339389       19.9232240125       12.7703323798
  H        18.8172354470       19.0906927386       13.1392741455
  H        18.4074061827       20.6195896474       13.9736286424
  H        25.6737035222       16.0324572050       17.5696824977
  H        24.2887544376       15.8567798725       18.6985972023
  H        25.8286487489       16.5563368667       19.2797340204
  H        12.7190886669       21.8966380950       15.6088738891
  H        14.0965575853       22.9901245190       15.2643486983
  H        12.9405354582       23.3921725796       16.5736595554
