121
Energy =  -1325.8789120423
 Au        22.2790829617       16.6275718286       26.7791572256
 Au        25.8349409465       16.1983709320       26.3435691656
 Au        24.4489007798       18.8262838667       26.9570116485
 Au        24.0758275723       18.2101055499       24.3048500649
 Au        21.7110247315       19.7153284773       25.4543148942
 Au        21.1210924868       19.0692652540       22.5039579264
 Au        22.9980964936       21.2348091848       20.7539832948
 Au        20.8492625314       22.6965997913       22.4632164789
 Au        21.2697566861       22.4797618737       25.3677042637
 Au        23.1765944309       21.1723400021       23.5231200210
 Au        25.1786489391       19.8947514791       22.0573959043
 Au        25.9923728775       20.1005507307       24.9593615364
 Au        27.4196440580       17.8163309315       23.6721004995
 Au        23.8017847305       21.5003764691       26.2100634494
 Au        23.9839304235       21.7517510875       29.0217446959
 Au        23.4638030498       24.3706996752       26.5364922144
 Au        20.7834158143       25.7989214246       25.8288786068
 Au        20.7913343438       25.5165206813       22.7475138541
 Au        21.4582897151       23.5766296363       18.5651694640
 Au        22.7401042951       24.2599959741       21.0609940556
 Au        25.0678075213       22.7056350281       22.0341705439
 Au        23.0587909085       24.2899076115       23.8197193348
 Au        25.6186107741       23.4270051288       24.8987455520
 Au        24.9008169710       26.1365608631       24.6819845964
 Au        22.6730138367       27.8613740546       23.4669778020
 Au        25.0679343814       26.0672978718       21.4208119161
 Au        19.8601928779       28.5965461385       21.6584664347
 Au        22.0324707643       26.8326120928       20.0028401712
 Au        22.2305613244       30.9857356853       22.6992893258
 Au        24.9550260376       29.7365757691       24.7404511928
  S        23.9288997403       14.9474773061       26.9344162971
  C        23.5851319558       13.9349798824       25.4382445523
  S        27.9414967528       17.1660223841       25.8814213776
  C        29.0816967205       15.7306085331       25.7298694678
  S        26.9908758180       18.4242569685       21.4350873946
  C        28.3446470954       19.5981997117       21.0250954319
  S        22.4642136272       17.1341397229       22.8131458681
  C        23.2587458390       16.8431776793       21.1846666365
  S        20.4079863817       18.0436794085       26.5960022875
  C        20.1782759363       18.7320171995       28.2844240595
  S        24.3410607233       19.4321790508       29.3211215031
  C        26.0963463277       19.3029817566       29.8469136265
  S        27.5363118776       21.9795132541       24.9345796519
  C        28.1568175553       22.0536406771       26.6618083151
  S        19.4921476838       20.7305243322       22.0474073412
  C        18.3304017435       20.6265228105       23.4638057731
  S        22.0922443657       21.3072094839       18.5274983812
  C        23.5827611347       21.2515937853       17.4536779379
  S        23.4487828265       24.0560690824       28.9365566561
  C        24.9809734330       24.9072645750       29.4866979128
  S        19.4454512155       23.8789222530       26.1435923529
  C        19.4228471918       23.6170015602       27.9621789594
  S        26.7035894505       24.3570753763       21.4183000383
  C        27.0161374649       24.0448771797       19.6338305614
  S        26.4268132562       27.9489654889       25.1354421025
  C        27.5513156753       27.9558684292       23.6831052545
  S        21.8148148630       27.9110335456       25.6961498517
  C        20.3884067794       29.0655162871       25.6265340519
  S        18.7181100998       26.7646607452       22.5923409076
  C        17.7786209084       25.9999603664       21.2132552268
  S        20.5581713535       25.7604843555       18.4748556146
  C        21.0715943167       26.4006536616       16.8313489566
  S        20.8779737384       30.5515190311       20.8187478599
  C        19.5615369556       31.8332633284       20.9002724335
  S        23.5398874628       31.6095144578       24.5524487857
  C        24.6261020776       32.9511366502       23.9208385530
  S        23.6590285011       27.9434860773       21.2970998851
  H        24.8151711938       25.9842940887       29.3675204445
  H        25.8420917293       24.6007362493       28.8861088099
  H        25.1488206348       24.6701908419       30.5432011560
  H        26.3434593168       18.2354841447       29.8864242698
  H        26.1974881992       19.7461528118       30.8437305643
  H        26.7623216264       19.8040812798       29.1382895711
  H        30.0445444475       16.1062008516       25.3641974330
  H        28.6902050321       14.9773563184       25.0411150568
  H        29.2090313457       15.2951249392       26.7278106593
  H        24.4062352561       13.2192965387       25.3199324172
  H        23.4960346330       14.5624948407       24.5458468016
  H        22.6454082758       13.3978718584       25.6109124628
  H        22.4913914373       16.4771683848       20.4929529614
  H        24.0329193502       16.0791596682       21.3208193245
  H        23.7123409226       17.7620876443       20.7961208562
  H        19.4369728327       19.5364777706       28.2147823356
  H        21.1149645727       19.1257384104       28.6900373115
  H        19.7979402812       17.9308631401       28.9285769190
  H        17.7915933056       19.6748665067       23.3925506846
  H        17.6278265987       21.4633860747       23.3783129061
  H        18.8672899265       20.6870223575       24.4169396556
  H        19.0188042586       22.6155833589       28.1512982933
  H        18.7631859590       24.3711917633       28.4067486957
  H        20.4249308093       23.6992198261       28.3943207459
  H        16.9048038162       26.6308101167       21.0123576529
  H        17.4526264042       25.0078525997       21.5461700788
  H        18.3883264645       25.9073682565       20.3092495591
  H        18.8159384743       31.5955156999       20.1328789747
  H        20.0223928694       32.8028626423       20.6793894430
  H        19.0866053728       31.8605788975       21.8844508170
  H        20.7874665270       30.0690320587       25.4324442398
  H        19.8894367908       29.0411648577       26.6018963145
  H        19.6865102601       28.7907606408       24.8327026054
  H        28.1006513900       20.0627212101       20.0626750363
  H        29.2758222999       19.0271300638       20.9352675807
  H        28.4493384232       20.3687615612       21.7949823270
  H        28.8549266046       21.2202020135       26.8048174371
  H        27.3346277947       21.9751213159       27.3805447234
  H        28.6827025987       23.0058486765       26.7977754460
  H        27.5971962814       24.8862555785       19.2383996540
  H        26.0805391087       23.9463237208       19.0761355620
  H        27.5995790495       23.1205208894       19.5519024755
  H        28.1888617567       28.8444239508       23.7527437388
  H        26.9899476821       27.9631465563       22.7422030234
  H        28.1653300653       27.0495320642       23.7357157966
  H        23.9955968586       33.8228086706       23.7119708250
  H        25.1544961492       32.6461471230       23.0138025742
  H        25.3463924983       33.1942499435       24.7103329611
  H        23.2729458167       21.4651604379       16.4243887813
  H        23.9936700728       20.2372298105       17.5146256059
  H        24.3365898991       21.9744714695       17.7776232871
  H        20.5394727018       25.8312092820       16.0610847042
  H        22.1520054054       26.3111080671       16.6890226683
  H        20.7781229009       27.4556864669       16.7837391942
