156
Energy =  -1621.2480539104
 Au        23.5415270007       23.2385331412       21.8414602845
 Au        23.4361110391       25.8927347812       23.2244659366
 Au        25.3305017330       23.7354240596       24.2821531980
 Au        24.1952993037       21.4231438879       25.5530046385
 Au        22.3750959179       23.4018734736       24.6653163345
 Au        25.0683086694       26.5310995547       25.5372647831
 Au        21.7683470785       25.3335656021       21.0083439830
 Au        26.5511752313       26.0575903766       22.9983941479
 Au        24.5620367630       25.5701826546       20.6062844718
 Au        26.6071492153       23.5901933930       21.6781338113
 Au        22.5712012553       20.7881361442       23.0552807979
 Au        20.4371918013       25.3584208937       23.7434338052
 Au        23.3335486417       28.4429222517       24.3624965175
 Au        24.8771010866       28.8405414883       21.8384726811
 Au        22.2993569041       26.2732398582       25.8724309977
 Au        27.6743046158       21.1873447625       25.1671825083
 Au        25.3254240551       21.0868456357       22.6410509120
 Au        20.5057144268       22.8574555372       22.4886000525
 Au        21.3427982509       22.3721528159       19.1786552988
 Au        21.1786370407       20.6597694783       26.2642232745
 Au        24.8376312583       23.0365249697       18.7107748095
 Au        24.1588085601       23.9373750194       26.8517556516
 Au        19.6525384017       23.0514471438       25.1886640520
 Au        20.7917745385       23.8673784622       27.8344271226
 Au        27.3298076465       24.2760159317       26.9680483512
 Au        21.3380787879       28.2970464277       22.0692841699
 Au        28.0477036861       26.2070554435       19.4351282612
 Au        23.5900705527       20.8399348967       20.4086615707
 Au        28.1087319608       23.9331568646       24.0558292125
 Au        16.7402496826       23.8660373414       23.9536120222
 Au        18.0391516471       25.3652019337       20.8817846628
 Au        30.3858261460       24.8597890680       21.9014084009
 Au        24.3497928254       26.8053658351       29.1681949717
 Au        23.9142195256       29.8805505851       27.2273396792
 Au        24.2580291272       17.8597758651       24.5885500494
 Au        23.6548622217       17.6343966825       20.9834897180
  S        23.9418263029       24.4993084917       29.2135335210
  S        27.7979355139       21.9881700126       27.3793243140
  S        30.3423586239       25.7449678832       19.7242902350
  S        30.5425049299       24.0390454283       24.1037230654
  S        25.8514227723       26.9474251686       19.0693012133
  S        27.0812649404       22.8280424374       19.4139237324
  S        22.7733159358       23.3796644702       17.5993698811
  S        21.1608748767       19.2863683451       24.3471712651
  S        21.1931580894       21.6237533722       28.4306238610
  S        27.6079185592       20.3246800450       22.9821261497
  S        19.8998981313       25.5419533372       19.4632057922
  S        19.4496642754       27.5321026043       23.2612296641
  S        19.8621600334       21.3515852156       20.6921301050
  S        17.3495819759       22.5891753489       25.8369226576
  S        20.3523361037       26.1177262449       27.3186423349
  S        26.8653652460       28.4678398831       23.0352043824
  S        26.9980686495       26.6103622582       27.0147457632
  S        22.9186909467       29.2790773026       20.6023904686
  S        23.1410333055       30.7321160938       25.1755400838
  S        24.7673331434       29.1198251884       29.2754039116
  S        24.9996603581       19.2534749537       26.3189147334
  S        23.6693328257       18.8672063409       18.9802821304
  S        16.0215148148       25.0699488473       22.0670326815
  S        23.5501006917       16.3394385453       22.9362161725
  C        24.6024319337       31.6229414997       24.5027785134
  C        23.5990371798       29.7593465944       30.5419918591
  C        22.5998973508       31.0737377676       20.8321853780
  C        19.8575431986       27.2738962895       18.8605157070
  C        15.6620311776       26.7437604116       22.7357134622
  C        19.4150009053       28.5446203735       24.7908360911
  C        20.6997297138       27.0843203510       28.8379291202
  C        17.0101147186       23.7210825475       27.2458321642
  C        19.6017261083       21.0249275036       29.1262927641
  C        19.4426973457       19.3690858310       23.7106575455
  C        18.1683504816       21.7936279324       20.1459456058
  C        25.4594713292       26.4036402668       17.3618903731
  C        22.8744273411       22.1795401289       16.2120149239
  C        21.9614635412       18.6537356984       18.3326596455
  C        27.5753148587       18.4976322416       23.1374449188
  C        31.1047797350       22.3036191491       23.8723035924
  C        28.4275469056       27.3186167806       26.1096938873
  C        28.2450327692       28.8888760780       21.9029403945
  C        30.6279339684       24.2772083962       18.6556065396
  C        25.3919652684       23.7891315494       30.0851232888
  C        29.5925131764       22.0300052284       27.7703593031
  C        23.9863342524       18.7705281839       27.7704189682
  C        27.4058697751       21.0223762398       19.4288468695
  C        24.9247081852       15.1297904912       22.7770115410
  H        19.4351427823       18.9038485575       22.7186503908
  H        19.0988525625       20.4065746006       23.6361744279
  H        18.8031473794       18.8045008660       24.3984306949
  H        17.9521400841       21.2382202724       19.2261686972
  H        18.0673071172       22.8724232820       19.9719170269
  H        17.4767196130       21.4864595261       20.9395865179
  H        19.7097459986       19.9550607519       29.3397241535
  H        18.7781393606       21.1777995284       28.4216381447
  H        19.4110361894       21.5704590332       30.0574571849
  H        15.9242476132       23.7790817283       27.3819647851
  H        17.4259388913       24.7170359227       27.0689574888
  H        17.4772187854       23.2926845007       28.1406544011
  H        15.3538249418       27.3757029051       21.8949175380
  H        16.5451463944       27.1739313940       23.2184800460
  H        14.8376049288       26.6522015818       23.4511909617
  H        19.1036993987       29.5587918959       24.5162646989
  H        20.4003780288       28.5670124738       25.2694035508
  H        18.6851028441       28.0947525606       25.4730842523
  H        20.6605381379       28.1456681751       28.5639307679
  H        21.6910595360       26.8493523145       29.2469562238
  H        19.9192034359       26.8581507837       29.5732837261
  H        25.3111486801       22.6977816871       30.0253764219
  H        25.3515833945       24.1116013207       31.1315681861
  H        26.3310040422       24.1127835468       29.6207252486
  H        23.6822462866       30.8520402237       30.5545295509
  H        23.9050184493       29.3532620441       31.5128948183
  H        22.5678678098       29.4671807710       30.3252892355
  H        28.2178035291       28.3805783437       25.9399398788
  H        28.5771655680       26.8122559744       25.1498068494
  H        29.3147105827       27.2043887977       26.7427007443
  H        28.2671982996       29.9782652432       21.7847882528
  H        28.1305022188       28.4022028939       20.9260497099
  H        29.1734567390       28.5449837240       22.3744836883
  H        29.9610288822       20.9980475973       27.7870997286
  H        29.7095961138       22.4808614652       28.7627652968
  H        30.1458810270       22.6185183223       27.0317140978
  H        32.1623185836       22.3238117362       23.5855806486
  H        30.5128926929       21.7887610557       23.1102541356
  H        30.9863663709       21.7819927790       24.8295338777
  H        27.3764730958       18.0901225840       22.1387133598
  H        26.7905048442       18.1661165391       23.8298269597
  H        28.5594669859       18.1665061554       23.4880535196
  H        24.2786149516       17.7571432872       28.0675573006
  H        22.9158198359       18.8071167454       27.5361995900
  H        24.2088127253       19.4772198389       28.5780346998
  H        21.8221669336       19.3648399481       17.5098315132
  H        21.2141930033       18.8499366111       19.1068842922
  H        21.8638408123       17.6277750232       17.9601017365
  H        24.6872330356       14.4592202557       21.9433368584
  H        24.9746786438       14.5573841933       23.7103005991
  H        25.8814713163       15.6265247551       22.5940132366
  H        20.7653264555       27.4391969191       18.2691349497
  H        19.8313120662       27.9845026615       19.6952650512
  H        18.9706005605       27.3925913277       18.2280377669
  H        23.4103610743       31.6275112348       20.3447441489
  H        22.5478647672       31.3350910492       21.8936108813
  H        21.6457676477       31.3106113232       20.3470932783
  H        26.0969067121       26.9664145858       16.6706880575
  H        24.4051695588       26.6377763400       17.1754724298
  H        25.6208688860       25.3257623705       17.2412493042
  H        27.4707108565       20.6833026944       18.3888248387
  H        26.6087875974       20.4844136585       19.9539832476
  H        28.3599240062       20.8584906289       19.9421827764
  H        30.5816668864       24.6138817884       17.6135871599
  H        29.8692904591       23.5078734882       18.8305251205
  H        31.6285334912       23.8889058262       18.8746725865
  H        24.3918410195       31.8729370980       23.4562266337
  H        25.5029019381       31.0038319586       24.5496612584
  H        24.7402985492       32.5407323487       25.0855199770
  H        23.6013416497       22.5640445608       15.4870777110
  H        21.8847625954       22.1158588333       15.7455243164
  H        23.1916576831       21.1927237602       16.5630005088
