158
Energy =  -1687.7305900815
 Au        17.4106737790       23.0316447424       25.0796446729
 Au        17.5183288225       25.3264203774       22.2946516465
 Au        18.8342535755       21.2096824964       23.1565724163
 Au        20.0482842774       23.7407910791       23.4678085640
 Au        18.8686836328       23.0012740327       20.9774831668
 Au        19.0995998797       18.2705959033       25.1812155856
 Au        20.3869108439       21.0923407260       25.7058909923
 Au        21.6110188342       19.5285471177       23.7683852934
 Au        21.2580524063       21.7023882531       21.7961039991
 Au        22.7511348142       24.1089924242       21.6145525429
 Au        20.5259750604       25.4244573000       20.3525743889
 Au        19.2428466931       24.1538493317       17.5720180424
 Au        20.9728903664       27.1062403202       17.6068815892
 Au        22.8338908383       28.5783939683       20.4466767897
 Au        23.0888091930       25.6705472331       19.2647880473
 Au        21.5793171137       23.1071621288       19.2193461934
 Au        21.9545035203       19.5266370489       20.1128144785
 Au        23.1815865190       25.0009990150       24.3898414120
 Au        22.6527723312       22.1489729229       24.2399455997
 Au        23.0040416513       20.2363533890       26.2969105699
 Au        22.8446936276       22.2157362903       28.8194905346
 Au        20.8106351088       19.1880080726       28.1215085416
 Au        24.8583976509       22.9127032639       25.9515743287
 Au        25.2864834357       20.6311317287       24.1402006530
 Au        24.0311015312       21.1807920119       21.4499731242
 Au        25.4126563513       23.6190038177       20.2705404971
 Au        24.9004022531       25.9952001925       21.9977630032
 Au        25.0599400868       23.2800943094       23.0822759705
 Au        26.5997336405       20.4141154945       26.9193349624
 Au        25.6266363484       18.4253684466       21.5638701992
 Au        27.5328177993       22.5979390258       24.4473794580
 Au        26.8944226794       21.4537263632       21.7056275913
 Au        25.9616576348       25.3818981105       24.6891301558
 Au        25.6204881847       20.5793188980       18.7748514927
 Au        27.6037626062       24.3066469849       22.1482285638
 Au        26.7197049793       26.2023496541       19.3926796315
 Au        30.0086392825       22.2618352093       22.5392942948
 Au        29.3328227657       25.1693226338       24.6201279195
  C        14.8655705241       25.0224417266       24.2796034403
  C        17.5535281221       20.9439998485       27.6628554979
  C        19.4224073624       28.0479152786       22.3369809060
  C        16.0885246514       19.4407004246       24.1728701714
  C        16.2375978475       24.0181464399       19.0180899173
  C        20.5300662520       25.2604473674       26.5322866242
  C        21.3894070782       20.4041472098       31.2071397509
  C        25.9608443075       29.2477772480       21.2705935987
  C        20.4207045827       17.0555835666       21.7124965044
  C        20.2620581655       20.4921792478       17.4453201327
  C        24.2722923879       25.2010412292       28.3887879389
  C        22.0647140921       24.4958173121       15.7276404918
  C        21.6100302045       30.3992371741       17.9321835976
  C        24.5522903729       19.0297664204       29.1833951574
  C        27.2185281600       17.7926050064       24.3483667000
  C        21.8041413711       16.5633633535       26.2216781560
  C        24.6834343646       17.3588427995       18.4964635688
  C        27.8945976146       28.1474442361       24.8257528178
  C        27.0612542289       23.1170163037       17.2508605025
  C        24.7605133763       28.0705589769       17.3928144662
  C        29.9509085176       25.4083269568       19.8725882246
  C        29.5881592052       20.5327056800       19.6863912543
  C        31.9737996245       23.1734783120       25.0392691173
  C        28.6269208093       22.9633483355       27.6726616644
  S        15.9971270893       23.8796125369       23.3882894556
  S        18.6142598742       22.2575075677       26.9450068073
  S        18.7303583052       26.9234205773       21.0635769492
  S        17.7280754634       19.0768087317       23.4341273445
  S        17.6986824410       22.9188129032       18.8623352619
  S        20.8813284378       25.6294078225       24.7732031282
  S        20.9263623160       21.0674615921       29.5582592665
  S        20.2534616999       17.2118000560       26.9581977321
  S        21.9899699464       17.9850543941       21.9258345037
  S        21.8894117530       20.9154051935       18.1828955705
  S        24.7823484638       23.4382511974       28.3298969579
  S        20.5080700902       25.4208394240       16.0274865220
  S        21.0271243762       29.0162733441       18.9893439254
  S        24.7859809910       18.9719755089       27.3684136966
  S        25.4871341015       18.2120252102       23.9013517575
  S        24.5320574754       28.4100590060       22.0619676454
  S        28.5769068165       21.6136445103       26.4308815195
  S        26.0480418346       18.3206530693       19.2548225037
  S        27.7668812170       26.5533931119       25.7300530718
  S        25.4077568947       22.7793285558       17.9744852423
  S        24.9562365169       26.3032876135       17.8253962928
  S        28.5770034959       26.1325739009       20.8509016126
  S        29.0831194415       20.3874969907       21.4443167134
  S        31.1459488775       24.0164195175       23.6339644020
  H        28.9805030519       22.5398511323       28.6198856742
  H        27.6383122906       23.4133845515       27.8113703670
  H        29.3329659460       23.7228859869       27.3119801879
  H        32.7844353679       22.5603545166       24.6288047316
  H        31.2693372117       22.5382642931       25.5874822590
  H        32.3873520681       23.9432995555       25.7004513335
  H        30.7677934749       25.1811346611       20.5683319666
  H        30.2810162016       26.1511026260       19.1372584391
  H        29.6379495852       24.4918476353       19.3646115278
  H        28.9840186910       19.8217307526       19.1094277963
  H        30.6500255255       20.2720434204       19.6080811030
  H        29.4245384563       21.5451133523       19.3065106669
  H        27.0989321331       24.1870666546       17.0106778532
  H        27.1672209461       22.5206615955       16.3373380983
  H        27.8618765440       22.8690172668       17.9534098696
  H        24.7867043613       16.3185448715       18.8252346209
  H        24.7925747644       17.4211878433       17.4079003659
  H        23.7063879771       17.7545736044       18.8004436346
  H        21.8143505666       23.6077124583       15.1365266602
  H        22.5473089517       24.2025060910       16.6672110512
  H        22.7320955005       25.1476749389       15.1528587528
  H        20.0615287640       21.2189303797       16.6481847439
  H        19.4591755608       20.5421349008       18.1871491971
  H        20.3284744307       19.4816357609       17.0264369323
  H        20.2695122407       16.4516217257       22.6155146838
  H        20.5280280614       16.4028989949       20.8385818412
  H        19.5668884479       17.7269204416       21.5808453874
  H        15.4521149228       19.8260622740       23.3672757347
  H        16.1630858100       20.1960308725       24.9625216418
  H        15.6673263295       18.5095582452       24.5679521215
  H        21.5353564110       15.7254309302       25.5685762003
  H        22.4388496619       16.2064934426       27.0404674988
  H        22.3311562197       17.3378268602       25.6518211372
  H        27.3136252691       17.9101764078       25.4358047286
  H        27.9325976820       18.4487802943       23.8413490188
  H        27.4003690444       16.7498912874       24.0635328115
  H        21.5244179124       21.2552822213       31.8846378184
  H        22.3105473033       19.8161736253       31.1631504380
  H        20.5632542372       19.7763047603       31.5600416699
  H        23.6516131288       18.4466920927       29.4158651345
  H        24.4211153923       20.0613678980       29.5341542636
  H        25.4300225129       18.5746547711       29.6566196808
  H        24.0060830781       25.4537403501       29.4210788787
  H        23.4293769196       25.3917711163       27.7171740399
  H        25.1334534530       25.7978219151       28.0643531425
  H        27.0045009236       28.7412080450       25.0627190422
  H        27.9561059019       27.9797681539       23.7462209188
  H        28.7952754054       28.6650439122       25.1758264509
  H        25.7098614799       30.3044491378       21.1256760942
  H        26.2231363912       28.7777374829       20.3143195295
  H        26.8141576634       29.1629425412       21.9536102034
  H        19.4426383251       25.2334707515       26.6713048403
  H        20.9584940687       26.0713069994       27.1333624426
  H        20.9626557908       24.3002947057       26.8349290215
  H        16.5967757813       21.3889442725       27.9570602988
  H        18.0783704283       20.5598102610       28.5468877749
  H        17.3970885039       20.1228375099       26.9550221089
  H        14.2030270626       24.4173641270       24.9091399251
  H        14.2745499751       25.5606888156       23.5295340153
  H        15.4188041858       25.7345570714       24.8980023784
  H        20.8395209297       30.5851373640       17.1751256138
  H        22.5607535262       30.1661266226       17.4445480201
  H        21.7253228873       31.2839836025       18.5689897547
  H        23.9077730630       28.1432306816       16.7050530987
  H        25.6759391934       28.4140404345       16.8978933686
  H        24.5549392264       28.6739955076       18.2872523366
  H        18.6012477137       28.6724306102       22.7071327908
  H        20.1769085850       28.6763092196       21.8469236618
  H        19.8771108390       27.4922883706       23.1634880248
  H        15.5420341934       23.5413205569       19.7183486900
  H        15.7729917191       24.1078786487       18.0295387177
  H        16.5167620810       25.0059133563       19.3985200066
