160
Energy =  -1754.2133633002
 Au        23.5886382453       23.6724476289       23.4248296737
 Au        22.1445919506       21.3019998586       22.6885865505
 Au        25.8454341570       24.6382117424       21.5902486277
 Au        20.9798475646       25.2680927527       23.6036034811
 Au        23.9236400372       21.1167009148       25.0810086476
 Au        23.2675271622       26.1739755913       21.8258735055
 Au        24.1961103526       22.2679134624       20.9804933486
 Au        26.1235921890       22.1180363251       23.2526755633
 Au        21.7439301624       23.6938307512       21.2079107899
 Au        24.1900044714       25.1466240641       19.4046943595
 Au        21.3797448297       22.7204225196       25.1961073670
 Au        24.8887506166       19.6234090831       22.9478669842
 Au        19.3518978868       23.0161623212       23.3085020843
 Au        26.4704749711       20.1307441634       25.3158283097
 Au        22.9616247830       25.1670869651       25.8100283338
 Au        25.1206094190       25.9886405694       24.1548471958
 Au        26.2042400261       23.1848061533       18.3887107368
 Au        18.5179933146       24.7988949612       21.0746331996
 Au        22.4435907699       18.0994956234       23.7183227972
 Au        22.2802307042       27.7206476611       23.9221239732
 Au        27.8173458877       24.3313294240       23.5212680208
 Au        27.8382825031       22.8362661384       21.0456864596
 Au        25.3496018662       23.6239777796       25.7087259772
 Au        27.4983679892       19.5810416008       20.8283892109
 Au        28.2990386835       25.8213424136       19.6207732741
 Au        25.7080848869       27.2357833800       20.7334622130
 Au        18.1202842292       27.0229778857       23.7993793475
 Au        20.5531513945       27.1530606230       21.6630533549
 Au        25.6933503567       21.2629456760       28.1368902104
 Au        24.1687106052       18.2793526199       26.8650191045
 Au        20.5428974294       27.5165466080       26.3308765064
 Au        19.3063582050       24.6722466498       25.6884952656
 Au        18.6896611270       20.0112263489       24.7922889388
 Au        21.6405715571       20.0027808950       26.1044608106
 Au        27.9975199579       27.2434833857       22.9070699704
 Au        22.9468955693       22.2231153164       27.4464259999
 Au        21.5644613420       27.0019936707       18.5273651922
 Au        24.5058293537       29.7699671827       22.3316959740
 Au        29.2322632556       21.9016694738       25.3651276734
 Au        20.2053703689       23.6552153937       28.6919617150
  S        20.0449097465       23.9699336422       19.4881391808
  S        24.5973715422       19.3328490961       28.9309705847
  S        25.6537178348       18.1589653357       21.1607291650
  S        20.2251014296       28.5328681744       19.7095973394
  S        24.9989352273       21.2364428153       18.9307813775
  S        22.8602740756       25.4065894219       17.3798567829
  S        20.9976751385       19.2095902088       22.2334927335
  S        22.1218920114       26.4421696319       27.7047339225
  S        27.3503937916       25.0842089280       17.5913055721
  S        23.3041837591       29.8874327397       24.3547435798
  S        26.8316597646       23.2524063986       27.5993501526
  S        25.8578289399       29.6274346196       20.4035294410
  S        19.6160252218       18.7617020998       26.5660443609
  S        22.3191472562       23.1636230728       29.6041221456
  S        26.5102062964       27.9326147672       24.5923943086
  S        23.7546673665       16.7390648871       25.1286163130
  S        17.8431574277       21.1467243894       22.9095370500
  S        29.3161430336       21.0275987322       20.4506946302
  S        18.9925363299       28.7918842450       25.0907712970
  S        29.6380255343       24.2074311969       25.1317149091
  S        18.1261192852       24.2158163520       27.7441842784
  S        16.8127118114       25.5215948957       22.5369053744
  S        29.6536560862       26.7845391042       21.2930433480
  S        28.7992040985       19.6055186475       25.6472949390
  C        21.5970487056       18.7089752894       20.5698151021
  C        23.5582341160       21.3008657489       17.7903253338
  C        23.9425985746       26.3498310539       16.2355050412
  C        28.7802311698       24.4370564321       16.6351520358
  C        30.0299853607       28.4479065005       20.6048743352
  C        26.3086197163       16.6995148466       22.0640074500
  C        29.5389800690       21.0161710895       18.6277822584
  C        23.3995511254       27.7354907936       27.9789107459
  C        17.6388673460       29.2021286410       26.2649629490
  C        21.9462408421       31.0801060399       24.0290313591
  C        19.4456683375       22.2615004086       19.1686752175
  C        24.7186921890       29.9359153300       18.9928212217
  C        22.0832571880       21.7029767042       30.6909765964
  C        15.7260648723       26.6097714886       21.5297324855
  C        16.2071325160       21.7891391826       23.4419203007
  C        17.6784754974       25.8138146519       28.5307856914
  C        27.3888900221       27.5285209689       26.1550833030
  C        26.2459662087       24.4324330358       28.8818395858
  C        31.1395740815       24.3429176098       24.0818929227
  C        29.0911715169       19.3009881229       27.4346121763
  C        22.5147788787       15.6059597481       25.8775517191
  C        25.9065993811       18.2976695712       29.7003943975
  C        18.9721932419       19.5515876516       28.0971839178
  C        18.5277783992       28.2468055324       19.0694961164
  H        21.1237660360       19.3726995922       19.8366818518
  H        21.2782386094       17.6755578640       20.3911545348
  H        22.6875101581       18.7818257805       20.4983378360
  H        23.9057569938       21.0356904262       16.7851734823
  H        23.1023043436       22.2966435078       17.7786169910
  H        22.8318159876       20.5562197319       18.1366644858
  H        23.3290366099       26.7025111285       15.3986530316
  H        24.7191617176       25.6672234192       15.8710259568
  H        24.4142930710       27.1981966014       16.7395073390
  H        28.3896147990       23.9324512102       15.7439615846
  H        29.3764139788       23.7387458858       17.2283466999
  H        29.3961243756       25.2932104347       16.3365388937
  H        30.6889142625       28.3129487837       19.7396369509
  H        30.5492908249       29.0207255813       21.3817348684
  H        29.1153125111       28.9692875764       20.3053263826
  H        26.8657196265       16.0805187930       21.3515127279
  H        25.4535386569       16.1391266248       22.4600899302
  H        26.9610042615       17.0027371917       22.8881048024
  H        30.2965306366       21.7700127560       18.3824204688
  H        28.5998867754       21.2427705594       18.1107917466
  H        29.9008361623       20.0247483101       18.3320446477
  H        24.2743437692       27.2426624034       28.4194125242
  H        22.9968372829       28.4707195845       28.6850349579
  H        23.6763109719       28.2284786470       27.0408491139
  H        16.8380037724       29.6873239053       25.6951547275
  H        18.0396874633       29.9006462253       27.0085536810
  H        17.2533102996       28.3085773443       26.7629004942
  H        22.3786411460       32.0866098390       23.9949976791
  H        21.2311387699       31.0060565219       24.8565088293
  H        21.4361981299       30.8572958162       23.0872952523
  H        18.5406372733       22.3251174400       18.5536807916
  H        19.2280495151       21.7332804947       20.1031438902
  H        20.2324433004       21.7378757533       18.6127730515
  H        25.2595041473       29.6871008653       18.0724103693
  H        24.4583303056       31.0004845996       18.9893757197
  H        23.8110612409       29.3270808213       19.0667247475
  H        23.0746874874       21.3017644565       30.9316310472
  H        21.4899955057       20.9284660943       30.1965905729
  H        21.5802344696       22.0362690361       31.6058655675
  H        15.2133319092       25.9820609375       20.7917619709
  H        16.2978999418       27.3906875801       21.0215793491
  H        14.9909364022       27.0638913247       22.2041392715
  H        15.8689102017       22.5083952446       22.6869919690
  H        16.2702033541       22.2860742875       24.4144001927
  H        15.5109660944       20.9442901532       23.4944198816
  H        16.7833349725       26.1915366771       28.0224163679
  H        18.4949819102       26.5394531046       28.4450386079
  H        17.4496734903       25.6275976763       29.5863430542
  H        28.1822031755       28.2708882001       26.3001773196
  H        27.8194958084       26.5220048553       26.1236009128
  H        26.6600465070       27.6038233863       26.9706679229
  H        26.5473945161       25.4379466628       28.5652634429
  H        26.7394964187       24.1814502675       29.8278212011
  H        25.1584032637       24.3843279877       29.0022180499
  H        31.2165177646       25.3816617539       23.7396410280
  H        31.0808485035       23.6758199373       23.2168935190
  H        32.0089725777       24.0849224785       24.6973266138
  H        30.1637644182       19.4111552937       27.6314103656
  H        28.7840569040       18.2704336750       27.6489180540
  H        28.5215422601       20.0013266786       28.0555688263
  H        22.1616537384       14.9303258166       25.0900542537
  H        21.6712168037       16.1630477955       26.2973469561
  H        23.0164879066       15.0303791507       26.6636898775
  H        25.4507653262       17.3427813307       29.9865903585
  H        26.2672296223       18.8191795506       30.5944640337
  H        26.7362228698       18.1218981722       29.0105866096
  H        17.9105363718       19.2971426815       28.1936818379
  H        19.0973233110       20.6395737340       28.0728183239
  H        19.5287280624       19.1321710793       28.9432631611
  H        18.4853688555       28.5974773487       18.0319834448
  H        17.8400270234       28.8386456679       19.6852087614
  H        18.2597859523       27.1855140773       19.1193250942
