212
Energy =  -2294.6407383839
 Au        24.9323760097       24.6369430256       23.2998461064
 Au        22.5296825482       24.1451454111       24.9749959820
 Au        24.1268267317       21.7723343813       23.7705398096
 Au        22.3868584305       23.4721200136       22.0313341286
 Au        25.1578219903       25.2916699055       26.2509226042
 Au        24.1797631530       22.4004065328       26.5790671525
 Au        20.0139418900       22.7232230739       23.5555086134
 Au        24.0465248260       21.1005873566       20.8406661857
 Au        23.3941755296       26.9991303018       24.5049736391
 Au        25.4025085743       25.7552253938       29.0056532208
 Au        24.0872194644       20.5054742124       18.1072179445
 Au        21.5994172755       29.0516388988       22.3837845045
 Au        25.6843613817       18.2641867583       19.3113708862
 Au        19.0603343154       21.5473021031       17.1687852802
 Au        27.9842046970       26.8306177727       27.9415051709
 Au        23.9790022352       29.6979561183       24.0177299095
 Au        26.7500062327       21.6407724221       18.8676624387
 Au        21.5674777630       29.6145504064       25.8946217918
 Au        21.9933536758       20.2514234588       15.5020183420
 Au        21.5648490937       20.6190178422       22.5059628887
 Au        25.2629166026       15.9001526469       23.4613405227
 Au        20.0049851078       22.2215477716       20.7837904350
 Au        20.5625036593       27.5529620657       29.7566210082
 Au        20.9889719074       26.0472003680       23.3813400005
 Au        27.6169480798       25.2961770651       21.4461970050
 Au        21.7738669780       21.4417722738       25.5444466738
 Au        21.7450810719       15.0707538971       23.8594217605
 Au        26.6769251066       23.1679185813       25.1602591978
 Au        23.6532963710       27.0678001861       31.5542141732
 Au        20.5683955340       25.2919760692       20.0425246242
 Au        23.2113142012       26.1562308795       21.4634157261
 Au        22.9437504751       24.7712694592       27.9906146964
 Au        26.4253347130       22.1181455893       21.9953537086
 Au        24.7510833098       24.0572521386       20.4702792696
 Au        25.6524475090       27.7258524437       22.8548767658
 Au        21.1529539858       26.4813580101       26.1578024804
 Au        18.8712802603       19.8470535049       24.5370248310
 Au        23.0473536906       18.9393885983       24.2618634156
 Au        21.6880646249       20.0253630731       19.5079900018
 Au        27.2769737074       25.8059102662       24.4102913387
 Au        22.4925259271       22.6774287112       19.0236461984
 Au        25.5565413658       19.5339969405       22.6901040336
 Au        23.0128868956       18.2540942142       21.5193975693
 Au        23.6993351411       27.4451952713       27.5133396249
 Au        19.9656126403       23.5814252040       26.8948233615
 Au        20.6452496663       18.0199919921       23.0267930767
 Au        18.6853652506       19.3266336724       21.0438608797
 Au        27.1198573580       23.4031450802       28.2824695412
 Au        26.0611757534       19.7347288743       25.6784456433
 Au        25.8551119569       28.2874988172       25.5841188119
 Au        26.3835493004       31.6833193984       23.4676941936
 Au        28.9125434901       29.0711944406       24.0036231465
  S        28.5943244597       23.2461761100       22.1057695532
  S        29.0670708180       24.7544430783       28.1766807618
  S        25.7633301060       26.0390226180       31.3942335181
  S        27.6916069458       19.4729880668       19.0757693834
  S        26.2815994929       23.9276761127       18.5542398800
  S        24.3181345370       19.9817908348       15.7443978257
  S        23.8772458437       14.1657667309       24.2561662422
  S        19.5716258068       15.8722952804       23.4300017621
  S        23.7097924143       17.0150816029       19.5404498713
  S        21.5392292593       28.0550514735       31.8421452768
  S        24.0800001445       32.1172233678       23.6509092969
  S        18.5141117306       23.9242465354       25.0605430864
  S        17.2669074906       20.0070005742       22.8140513552
  S        24.3803359730       18.1366391908       26.1374106129
  S        27.9228552042       21.0736614568       25.1107318252
  S        19.7316685424       18.6540084597       19.0447341509
  S        25.5147290883       21.6926756647       28.5162862335
  S        20.0921723962       29.7876498733       24.0506984367
  S        19.6927735806       20.5560736419       15.1263521092
  S        19.1157637371       25.8118404567       21.8344586287
  S        21.3143805501       23.1796576239       28.8042518315
  S        20.3424134194       19.5840068000       26.3525347839
  S        26.9266414868       28.9097027885       27.6941992313
  S        18.3678371576       22.7684499781       19.0453345725
  S        21.9707644349       24.8822906420       18.1752513519
  S        23.0438317289       28.4736120224       20.6180328092
  S        22.7238990355       29.6336224652       27.9477654974
  S        26.7634286292       17.4216530257       22.4942547392
  S        29.4189751112       26.9231852916       24.7915389606
  S        28.6623523303       31.2549744340       23.1459053754
  S        19.4091730379       26.8860708670       27.8292425816
  S        26.6947826362       27.3424607943       20.6966181061
  C        25.3424875623       24.0363326151       16.9839519313
  C        21.9845050732       28.4811893286       19.1223583144
  C        16.7573485264       22.0331923534       19.5182663953
  C        17.0587457488       22.8632230196       25.3998863786
  C        16.1890054647       18.5381414712       23.0533347604
  C        29.6651694873       24.7097618293       29.9134478862
  C        18.8404455158       16.0176457410       25.1109730821
  C        23.5694256242       18.6654383850       27.6916631204
  C        20.4483407029       23.9002523086       30.2506385271
  C        26.9281206571       27.4540048007       31.5382462495
  C        24.5369871956       18.1575400050       15.6815124521
  C        28.1079039315       28.4941553876       20.5259163667
  C        21.8846877940       29.8580271131       31.7472414540
  C        28.1736533285       17.4859349640       23.6648812123
  C        29.0614517230       20.9769689808       26.5449205217
  C        24.6063579300       22.0746404167       30.0623271782
  C        24.2118040044       15.3218507506       20.0338552729
  C        28.2636355796       19.1341331038       17.3629996918
  C        19.3998130587       20.1557401681       27.8169114368
  C        29.6334895488       22.7210969852       20.6882093250
  C        24.0550973626       14.2608069562       26.0832481429
  C        20.1408260648       16.8836016338       19.2966518062
  C        20.8912722822       24.7151369206       16.7030369262
  C        18.4658966402       27.4816481579       21.4483237149
  C        29.5584821024       32.3531324122       24.3135221097
  C        19.9800464549       31.6038571967       23.7985824366
  C        18.4507071028       28.3617266802       27.3167281331
  C        24.0034408249       30.9333132317       27.7513433044
  C        28.2517931874       30.1328575769       27.3634929377
  C        30.5828183071       26.2487619861       23.5430810960
  C        19.0063905966       18.8538630728       15.2278533696
  C        23.5578955689       32.3550433085       21.9031986518
  H        26.0396570854       23.8451789458       16.1603394958
  H        24.9401078339       25.0531130365       16.9123629113
  H        24.5206600745       23.3118344005       16.9626035378
  H        22.5726318964       28.0483280839       18.3043478537
  H        21.7218426537       29.5193222376       18.8904882771
  H        21.0813134405       27.8751281249       19.2682481506
  H        16.0366155355       22.2542103915       18.7229388024
  H        16.4415371035       22.5077492928       20.4543323588
  H        16.8426079424       20.9502970481       19.6678097954
  H        16.4337701729       22.8541653926       24.4991393013
  H        16.5049286919       23.3040681940       26.2366208650
  H        17.3570945720       21.8338653657       25.6379814346
  H        15.4850587104       18.5004590542       22.2136518436
  H        15.6382034307       18.6651256607       23.9921976961
  H        16.7775900589       17.6157789797       23.0806168672
  H        30.4486034602       25.4682529507       30.0232920035
  H        30.0860224202       23.7143680500       30.0975935519
  H        28.8517115847       24.9007383896       30.6201329535
  H        17.9021061164       16.5779083179       25.0217839451
  H        19.5109381662       16.5491489616       25.7926973143
  H        18.6379105519       15.0072315103       25.4837062921
  H        22.6898922032       18.0288116247       27.8404717367
  H        23.2613987907       19.7161883954       27.6322510113
  H        24.2835346896       18.5279520745       28.5112937611
  H        19.5786758074       23.2709760030       30.4731551883
  H        20.1283200630       24.9326499517       30.0639169722
  H        21.1463133661       23.8831729767       31.0961956928
  H        27.9287180155       27.0954476016       31.2687245513
  H        26.9207293411       27.7959671158       32.5794158294
  H        26.6488342548       28.2706371116       30.8663110272
  H        24.3864291017       17.8330924849       14.6456097650
  H        23.8348843323       17.6472064717       16.3469946153
  H        25.5610482794       17.9301130721       16.0008913921
  H        28.6978324298       28.1817397878       19.6564679330
  H        28.7350593468       28.5000750120       21.4276229295
  H        27.7051978903       29.5004355198       20.3597820583
  H        20.9247914561       30.3816512453       31.8229592703
  H        22.3750824592       30.1166797051       30.8035140800
  H        22.5199308602       30.1263791343       32.5983741355
  H        28.8464889211       18.2809462694       23.3234750476
  H        28.6860238132       16.5178117673       23.6343024932
  H        27.8322802684       17.7103052138       24.6822108861
  H        29.8503414684       21.7228076419       26.3927364195
  H        29.4961368685       19.9706884420       26.5619753548
  H        28.5428202558       21.1818727180       27.4887842535
  H        23.7340070679       21.4127368835       30.1073923818
  H        24.2753986004       23.1192040126       30.0764652006
  H        25.2763315613       21.8762121831       30.9064801034
  H        24.6741016047       14.8383287906       19.1656468712
  H        23.3027482095       14.7809214240       20.3231706970
  H        24.9110949053       15.3364751097       20.8789675205
  H        29.1478482933       19.7544771161       17.1754460945
  H        27.4866326036       19.3713172407       16.6296191792
  H        28.5350791881       18.0743001112       17.2983577403
  H        18.6141488445       19.4216344004       28.0277645320
  H        18.9676595975       21.1504801593       27.6489588412
  H        20.0995440071       20.2132054301       28.6592210864
  H        30.5259873197       23.3572854125       20.6689539065
  H        29.0913982759       22.7988488563       19.7383480396
  H        29.9222069493       21.6772893560       20.8585728307
  H        25.0541995203       13.8875233109       26.3358492444
  H        23.2942760730       13.6122924997       26.5310013458
  H        23.9431024149       15.2903408137       26.4379799142
  H        20.8018469520       16.5743289315       18.4793970718
  H        19.2052698180       16.3139351545       19.2657320618
  H        20.6465548422       16.7299311559       20.2563705412
  H        21.5138771963       24.3506645184       15.8772542761
  H        20.4950198177       25.7079118721       16.4596780219
  H        20.0670622567       24.0124144039       16.8750584803
  H        17.7804055682       27.3900123423       20.5980418996
  H        19.2753873031       28.1847338023       21.2130942515
  H        17.9240314355       27.8427775136       22.3303243175
  H        29.3918563073       33.3877353133       23.9927516496
  H        30.6253459415       32.1112596058       24.2467813443
  H        29.2106580208       32.2217561332       25.3418508848
  H        19.4962704330       31.7877937743       22.8326088588
  H        20.9718513907       32.0671716506       23.8214273144
  H        19.3630894366       32.0161809590       24.6056611918
  H        17.9733115521       28.1265068130       26.3586336704
  H        19.1001417672       29.2369084005       27.1965537543
  H        17.6879931488       28.5526285245       28.0800660349
  H        23.4993277474       31.9062494787       27.7503697912
  H        24.5630668987       30.7955503711       26.8192382774
  H        24.6864591424       30.8597309150       28.6049846085
  H        27.7624277317       31.0760082225       27.0907984434
  H        28.9034138657       29.8052594615       26.5429343455
  H        28.8332990922       30.2665117634       28.2828530507
  H        31.5149301257       26.8223532973       23.5917868037
  H        30.1518329395       26.2933923315       22.5358951166
  H        30.7686527891       25.2008402314       23.8064932056
  H        19.4264054248       18.2699357498       14.4016548420
  H        17.9191807900       18.9297101735       15.1116959045
  H        19.2455063001       18.3885846812       16.1893315642
  H        23.9187888772       33.3335911736       21.5671673763
  H        22.4619375665       32.3299480964       21.8753438467
  H        23.9495800262       31.5618302719       21.2597976879
