431
Energy =  -5861.9406377153
  C        22.7234567723       14.0333908281       20.1606274195
  C        19.3160467802       13.8101470163       25.4575744829
  C        23.9111647423       12.6955861129       24.6834357022
  S        24.9813726037       13.6849030659       23.5683720878
 Au        22.5192915926       23.4913540610       24.9922952063
 Au        24.0005520534       20.9687768579       24.5476667118
 Au        22.7734889866       26.4370881206       24.8255343523
 Au        21.0281501288       25.3216272436       26.8489968080
 Au        23.9441873102       25.0589993843       27.1565124932
 Au        16.8375688347       26.7553534264       24.3606398887
 Au        20.3013687817       26.2025812285       20.2964802144
 Au        21.1354240624       20.9661213167       24.1458571190
 Au        24.4656026538       27.8053778347       22.7157831075
 Au        24.6416536120       23.6786885278       20.0379740884
 Au        23.5786402837       25.5200796127       31.3043310092
 Au        26.0734234410       26.0917380145       20.9682976889
 Au        19.6413405890       23.6691321127       24.6568653289
 Au        20.8002439178       22.2017800116       26.9455131261
 Au        21.3890124331       24.8345646294       22.7075150535
 Au        25.3514298164       26.6549520885       29.2676374771
 Au        28.6212544665       26.0929234690       25.4668171529
 Au        25.0305397036       23.7155269138       29.4977669759
 Au        19.1296743581       20.9263959911       28.9613965811
 Au        27.0124712391       24.8918416217       27.6283305408
 Au        19.7233891585       26.6093148113       24.5480950241
 Au        25.5519762349       23.3617021727       25.3352208040
 Au        27.5317989456       23.5693689085       20.6105991867
 Au        22.3400200762       26.8028314412       29.0687068033
 Au        22.8629508326       22.3510098959       22.2031111198
 Au        19.8855088185       22.4256586914       21.9356523081
 Au        27.0740350460       27.8270163383       27.2472584782
 Au        30.2619896109       24.4973447371       23.6943305984
 Au        24.3594620081       24.7963881788       22.9386915011
 Au        23.1726413312       26.1530290045       20.5898113670
 Au        30.8355138341       24.5009768299       26.4671962324
 Au        22.0757532837       23.8106846945       29.1317728314
 Au        17.8922167121       22.3706012436       26.6216858354
 Au        19.1621717524       23.8920868237       28.8102922713
 Au        25.6354158319       26.2945672924       25.1963107228
 Au        23.2316233626       21.1807619960       19.4706831350
 Au        16.9901834100       22.6108996038       21.6343603297
 Au        20.4819150493       25.3103295588       31.0097039291
 Au        26.9924725544       20.7281164009       25.0019936337
 Au        19.4976515412       26.8685337972       28.7283449111
 Au        21.6742395665       23.6635218871       19.8981060616
 Au        21.0670680433       28.2584688376       26.7464100757
 Au        16.7656310694       23.8402900593       24.2409746110
 Au        25.7053433876       22.2041912591       22.5715776373
 Au        21.5620117786       27.7648596410       22.5801366298
 Au        28.4425316625       23.1757153782       25.6826727004
 Au        23.6469342237       22.1470403355       27.2784311107
 Au        23.5754583944       23.3221267720       17.3000398743
 Au        21.3297986322       19.8434637624       21.4013428964
 Au        25.5024113075       29.6932479208       28.9982375608
 Au        27.1253481287       22.2737151550       30.6263778613
 Au        18.7196235333       23.9859281273       19.5863372464
 Au        27.4376245012       27.5258387048       23.1817825033
 Au        21.8485313875       25.6711987966       17.9750769427
 Au        26.1163174880       21.1178298890       19.8721247329
 Au        18.4108628657       25.1654015220       22.2734937961
 Au        24.9012249120       20.8100402879       29.6264715495
 Au        20.3209135370       22.5023915663       31.0711238759
 Au        21.7798470504       28.6022718297       19.8627733309
 Au        25.7650535966       29.2398291436       24.8366997977
 Au        27.7969555556       25.7679798254       18.7393615688
 Au        25.0398451256       19.6026282952       26.8464512912
 Au        22.8549358222       29.3547208202       24.6556051826
 Au        18.0393706177       28.2170756408       26.5083550788
 Au        26.6875156594       21.9907304293       27.7008329353
 Au        20.3212588207       21.1787841069       19.0828353115
 Au        29.4052677516       26.3432642134       28.4297457783
 Au        17.4573026252       26.4732722429       19.8907898751
 Au        24.9366529248       25.7285367705       17.9111907828
 Au        24.1057267158       28.1128971133       27.0422687272
 Au        26.1807862138       30.1325640609       22.0206031656
 Au        23.2960172534       22.2464487431       31.4525522924
 Au        19.9748038112       29.5431835597       24.3951588072
 Au        22.4306001676       18.3490381283       23.7909599700
 Au        19.2217332207       19.7196919188       26.1887445984
 Au        29.0930723232       25.9939891955       21.2833843887
 Au        24.2935046553       19.6814727560       21.7610278665
 Au        18.0985460417       21.2057658152       23.9171698007
 Au        23.2978981948       30.2670989864       21.9286132707
 Au        30.8627898985       21.9373082617       24.8577488530
 Au        27.7727462069       25.1836102383       30.4746185815
 Au        22.1302283620       19.6027264246       26.5594150480
 Au        29.5459540403       19.4363894094       24.1863422440
 Au        29.2245481486       20.4608554501       26.8182436861
 Au        17.9810058329       25.3623604062       26.5561012808
 Au        16.4752669599       19.9605284228       25.9183652554
 Au        28.8168428103       28.9724127955       25.2876953769
 Au        27.6671193595       18.1405350047       25.9588449304
 Au        26.4071637798       23.2384710922       17.7682884911
 Au        27.1570629013       19.2985591229       28.7304056778
 Au        22.5756304051       29.7463921174       28.7986130424
 Au        28.6514462296       22.1082372857       22.9027140421
 Au        24.2229473753       30.9992687902       26.7520763011
 Au        18.2769452084       20.1467942065       21.1925089925
 Au        21.9832539774       20.6969690266       29.3432632526
 Au        19.5972905750       18.6702812598       23.3550616694
 Au        28.9625243361       21.0970961347       20.1906766522
 Au        23.9244793021       28.3075105304       31.0535915362
 Au        27.7205089814       28.3053917542       20.3500861664
 Au        23.2844298759       19.4460209567       31.5821892932
 Au        27.2731075244       24.6330907965       23.3128780516
 Au        27.2128729301       19.6507816159       22.3458613714
 Au        15.2004154111       25.5486268760       21.5567942425
 Au        24.8182947579       28.7063341462       19.9826972083
 Au        29.3379751222       23.4815487821       28.8444184243
 Au        20.4631849506       17.1769681152       25.7826948401
 Au        32.3049547844       24.9077459478       29.5945595905
 Au        16.3393486051       24.0586341892       28.3674993400
 Au        16.0570789915       27.2803382094       28.7137125600
 Au        24.7347993435       18.5498000612       19.1576211662
 Au        25.3548370376       18.3946444719       24.2140308448
 Au        18.9480076888       28.2533203208       21.5572522307
 Au        25.7266630156       17.1685977334       21.5020960018
 Au        26.9833502571       28.4092763420       31.6170637328
 Au        21.3016068202       31.0670685662       26.3728929468
 Au        22.8543885552       17.3297291753       21.0578318140
 Au        20.3049017001       18.3171741036       28.4025820025
 Au        14.4918120165       25.5261605327       26.1655794842
 Au        20.3536195660       19.1315308067       31.7653195921
 Au        23.6348546324       25.7874339358       14.9670781923
 Au        21.8510479745       18.8468359312       18.6788282176
 Au        23.9682774722       15.9680940104       23.5433220393
 Au        18.6825429597       29.2585198195       18.4694438257
 Au        30.1662529541       23.2956771166       31.9621140131
 Au        19.3479261995       30.8694703958       28.5548244177
 Au        21.6682636804       27.7089722103       33.2425841775
 Au        23.5958954030       17.0825305351       26.1186966889
 Au        24.1786758719       18.1900008189       29.1606138388
 Au        30.2065756848       29.5484434631       21.9481280385
 Au        27.2127174159       25.5304815460       15.3443754861
 Au        26.1482777576       17.6293712937       31.5646030598
 Au        29.7786067433       30.2397187302       28.0987607525
 Au        17.3985809246       16.8891756680       25.3556315709
 Au        32.1508981641       21.6198355222       21.8734296591
 Au        17.1089759879       18.1970629579       28.5537063319
 Au        26.2213281434       32.5534759440       24.4516864361
 Au        23.6573477415       19.9280931975       16.3866416984
 Au        18.7338155102       18.1539279482       18.3820660822
 Au        21.2410402687       15.0231520295       23.0070537575
 Au        14.1895395004       21.4705382770       27.9212665496
 Au        27.1288114581       30.7330641666       26.6928710626
 Au        21.7242162253       33.0081682352       23.8586821626
 Au        28.4185418330       19.9066900296       17.2141539579
 Au        29.1078262939       16.9025072919       21.8922379974
 Au        26.5497841930       14.7462176528       24.9747078286
 Au        27.6662440326       18.6092863281       19.8500575142
  C        15.0269429278       23.4595565703       18.8778174427
  C        15.3927410452       29.0965062088       19.0802801859
  C        13.2111890130       23.4992158998       23.8510091252
  C        13.6743388321       27.8860886750       23.3801109104
  C        15.6947349847       18.0990627292       19.9220541640
  C        19.0474805039       23.0041632708       16.4166062795
  C        12.7639714568       27.7303969749       28.0722195121
  C        13.6239136475       18.3100884873       26.9249391414
  C        13.0904846681       24.2262848955       29.5012020300
  C        20.2895405379       26.1823330294       14.9353228812
  C        20.5628728310       17.7910335886       15.6640700676
  C        17.8464702644       15.8741346691       22.1988946727
  C        18.7916631753       31.5915989549       21.8821609230
  C        22.8039212875       22.1944306374       14.1185128751
  C        21.4130225603       30.5240937378       16.9579500566
  C        16.0621984476       30.8248321042       27.9376957304
  C        15.6860344848       15.2283504776       27.7571760653
  C        25.7371155929       25.9882567176       12.3925143538
  C        16.7667205609       19.8337489315       31.4359723163
  C        24.3012108838       16.6051582255       16.3564001343
  C        19.2440023830       33.8203792612       25.9643455545
  C        17.8256432710       28.8340599973       31.0895503585
  C        23.8794115215       33.5599851489       21.4154403892
  C        26.1679933888       28.8453421000       16.8342537337
  C        18.6313956828       26.2906969044       33.8526113379
  C        19.1984150113       16.1271936260       30.8878598054
  C        27.0642463584       21.5890796696       14.8259076241
  C        21.6529247439       32.7795576299       30.0736567476
  C        20.9690375252       21.3228827297       34.2895001966
  C        27.5202509160       14.6596664264       19.9042757431
  C        30.3017286508       25.0151154572       16.5762429226
  C        27.8109797002       33.1565715692       21.5276850868
  C        25.1036674028       15.0371754963       28.4688514313
  C        30.3271436164       17.2109893485       18.1859336004
  C        25.3987290120       34.2252686503       27.2827345696
  C        30.6643854928       28.9948172005       18.6856193990
  C        23.4358916364       16.3334649322       33.0373892612
  C        32.0156928909       20.4860687140       18.7772619195
  C        25.0343876202       23.7249338641       33.8917401639
  C        24.4041572038       29.1782965145       34.3488046673
  C        26.1093284263       31.6725351433       31.7408260216
  C        29.7227331915       15.4841758404       25.5348183109
  C        29.4212108048       33.2783204821       26.5463506548
  C        32.4857133695       26.5459916867       22.0027412839
  C        32.1977315207       17.4438097744       23.1627984642
  C        31.6215751302       30.8720406841       24.6323529551
  C        29.4586908445       17.8499787401       30.9536564816
  C        28.6323290047       26.3437150083       33.6223863743
  C        28.0324921163       21.5263928172       33.8784371574
  C        34.1123210905       22.8720003289       24.2499267639
  C        32.0883291807       21.3007615764       28.4960836556
  C        30.9960210552       28.5248341026       30.5386474184
  C        33.6206275708       26.4116088772       26.8994633546
  C        33.2161318729       24.3732144485       32.7535557884
  S        14.8455368061       23.3717649355       20.6972961014
  S        16.6511602912       28.0711367853       18.2216164293
  S        15.3337729988       27.6537746930       22.6323163318
  S        16.9227240404       19.3115460481       19.3038427172
  S        14.4818683534       23.4080846941       25.1661218215
  S        14.0416963660       19.9202093380       26.1551783629
  S        18.4226071429       22.2248447500       17.9477426476
  S        14.3415769808       27.6751830099       27.1302836516
  S        17.4558370207       17.4354437508       23.0719819709
  S        14.4985474833       23.0600525500       29.6307845277
  S        20.6081517508       17.1312522003       17.3800746680
  S        18.2039834421       30.1447015843       22.8396856998
  S        22.3221694275       21.7861539068       15.8429114297
  S        20.7017601173       30.4555148936       18.6474168677
  S        21.7388278757       26.8551774129       15.8361948751
  S        17.6132144098       30.6172833188       26.9808335407
  S        16.8238906817       20.2454053848       29.6527026018
  S        17.3146468327       16.0604849599       27.5720165101
  S        21.5039708440       15.3030379086       20.6772257914
  S        25.5072633039       24.8911348833       13.8502450907
  S        17.6796881585       27.1416004628       30.4064433598
  S        22.3923859980       32.5173392321       21.6679921392
  S        25.1792290797       18.1666712314       16.7524848354
  S        24.6565265069       28.1671515721       17.6143484768
  S        20.8719439758       14.7717059915       25.3203884384
  S        21.0536345640       33.5310883054       26.0588277067
  S        19.7199743171       21.0649918852       32.9761831297
  S        20.6845945834       17.1409994389       30.5271001144
  S        21.0304007806       31.0583725656       30.2011335675
  S        28.0196525999       22.0417589157       16.3266394329
  S        20.3431866768       25.7910793860       33.4279560470
  S        28.9901038416       26.2949227050       16.6671544820
  S        28.5838480940       17.6037820550       17.7740729228
  S        23.5693731014       16.0267179271       28.3130494960
  S        24.5555775091       33.3036935150       25.9399630077
  S        27.3721582638       15.3350505228       21.6026161628
  S        27.7745407985       31.8562584172       22.8251277512
  S        29.4786364771       29.9262989439       19.7335446010
  S        23.3701266695       23.9533383348       33.1704929056
  S        23.1419495540       29.5420509565       33.0617298974
  S        24.3910885194       17.8989665833       33.1262862894
  S        31.2423662757       21.8575514343       19.7184659064
  S        28.1191693297       15.7778656072       26.3738118592
  S        30.8590624258       18.4055509180       22.3515964335
  S        31.3527819732       25.1566126001       21.6160652981
  S        27.1077945067       30.5644993870       30.6720294181
  S        28.6304350319       32.3085778487       27.8873310552
  S        27.9362558431       17.3648221485       30.0532509926
  S        27.1207033284       26.2695078913       32.5822770130
  S        30.9697796984       29.2272467110       24.1490790727
  S        30.2989985182       21.2043256040       28.8724797492
  S        28.7854890915       21.4200586285       32.2090909171
  S        33.1033383381       21.3559528259       24.0185335372
  S        30.9104570485       28.2809424093       28.7209469344
  S        33.0934689057       24.7258243215       27.3946290144
  S        31.7442072085       25.0447695832       31.8789481165
  H        23.0677723224       14.2991687198       19.1539767470
  H        22.2214369723       13.0591357384       20.1349751939
  H        23.5744221487       13.9975306216       20.8501941981
  H        19.4963613014       12.8021810614       25.0671792907
  H        18.4954082312       14.2912370707       24.9115607761
  H        19.0514474897       13.7617552325       26.5206131259
  H        23.0581603690       12.3385105862       24.0930732686
  H        23.5311877586       13.2979245573       25.5150299645
  H        24.4900480557       11.8450321236       25.0606615544
  H        14.1112696334       23.8967069354       18.4635422373
  H        15.1659308780       22.4374223484       18.5061949698
  H        15.8971214060       24.0654125847       18.5991555980
  H        15.2407422120       30.0173424558       18.5061363704
  H        15.7034852901       29.3309851588       20.1039002232
  H        14.4625224493       28.5166215626       19.1121826573
  H        13.3068455156       22.5959199110       23.2366922754
  H        13.3508276588       24.3815734262       23.2129893822
  H        12.2245247975       23.5221381756       24.3270565711
  H        12.9501577089       28.0599601611       22.5762000833
  H        13.7286484573       28.7643061262       24.0347109024
  H        13.3808394152       27.0150080902       23.9788066910
  H        15.2278476574       17.6127261921       19.0578762758
  H        14.9409386838       18.6606845181       20.4871154391
  H        16.1459463798       17.3505999736       20.5781680607
  H        19.2843335004       22.2144380464       15.6946567642
  H        19.9506278841       23.5910323485       16.6226362844
  H        18.2578906217       23.6557769236       16.0239880667
  H        11.9382255531       27.7354847617       27.3510153177
  H        12.7525804655       28.6610674554       28.6517515874
  H        12.6620083488       26.8749978585       28.7451082042
  H        13.7568845660       17.5314204877       26.1635971625
  H        12.5774582027       18.3374203900       27.2504018282
  H        14.2796079536       18.1085353616       27.7812429494
  H        12.1841233984       23.7237772365       29.8585836946
  H        12.9544526308       24.5553613440       28.4633706210
  H        13.3130751303       25.0907068372       30.1390695882
  H        20.2781186670       26.6121774540       13.9271273038
  H        19.3900976108       26.4921188559       15.4819425923
  H        20.3230924062       25.0910149332       14.8740253620
  H        19.7682009326       17.2772564115       15.1110742978
  H        21.5355322329       17.5876422037       15.1991226245
  H        20.3873186231       18.8709991248       15.6605694276
  H        18.0895777851       16.1282416442       21.1579261000
  H        16.9681422690       15.2191003060       22.2321410455
  H        18.7178035382       15.3696992147       22.6426109202
  H        18.0679819803       31.7804657041       21.0797083113
  H        19.7767919654       31.4116611400       21.4414517096
  H        18.8495648778       32.4557726861       22.5554026373
  H        22.3862424618       21.4291656536       13.4540791370
  H        23.8903810191       22.2421814413       14.0017536514
  H        22.3800401275       23.1781725692       13.8770819466
  H        20.8023055445       31.2015062177       16.3502548181
  H        21.4588853506       29.5320852523       16.4961678827
  H        22.4299269100       30.9235718771       17.0541918291
  H        15.2266453708       30.6093868838       27.2610601749
  H        16.0071296711       31.8619733574       28.2872774392
  H        16.0163037982       30.1315237921       28.7863812843
  H        15.7155954285       14.3010407436       27.1729130077
  H        14.8649555430       15.8594109300       27.4071876524
  H        15.5450366777       14.9908494231       28.8181784475
  H        24.9013759164       25.8163587533       11.7043135163
  H        26.6814346579       25.7155163450       11.9073488263
  H        25.7624240261       27.0410194679       12.6871028442
  H        15.8110157743       19.3399033951       31.6443174064
  H        16.8280593042       20.7757013400       31.9940324396
  H        17.6048079500       19.1886841110       31.7300357759
  H        24.1667767106       16.5394633706       15.2704364133
  H        23.3294088409       16.5538851890       16.8617580701
  H        24.9381572143       15.7797326074       16.6968208414
  H        19.0680109327       34.7690113507       25.4447667504
  H        18.8633402199       33.8772556315       26.9916997055
  H        18.7325060002       33.0015740475       25.4479623733
  H        16.9300146035       29.0569987442       31.6809761043
  H        17.9549366385       29.5819955373       30.2930111939
  H        18.7177137084       28.8575042680       31.7305480522
  H        24.3248979853       33.2715422957       20.4560386893
  H        24.6074236787       33.4124843592       22.2244270927
  H        23.5654814964       34.6095197976       21.3831293481
  H        26.2781198457       28.3797726904       15.8459377914
  H        27.0555531562       28.6370130965       17.4419993755
  H        26.0386021460       29.9290523507       16.7299240181
  H        18.0040138587       25.3942738600       33.7767767552
  H        18.2427218770       27.0548155182       33.1748794691
  H        18.6282604953       26.6624720107       34.8836646113
  H        19.2128090260       15.2683779127       30.2059952087
  H        18.2762594867       16.6973273868       30.7214737600
  H        19.2541656482       15.7837846675       31.9270441739
  H        27.7064283152       20.9771291446       14.1827747869
  H        26.7878755118       22.5160269832       14.3100898109
  H        26.1612276735       21.0256977467       15.0929021781
  H        20.9166064588       33.4504831317       30.5313943823
  H        21.8195403697       33.0642179561       29.0286404994
  H        22.5962458205       32.8297405610       30.6305796937
  H        20.8710977864       22.3548727672       34.6466463121
  H        21.9830983793       21.1708151102       33.9015597328
  H        20.7625940271       20.6155944587       35.1008990382
  H        26.6161597635       14.0702814227       19.7094037655
  H        28.3996998159       14.0062689829       19.8675248551
  H        27.6118787887       15.4597179417       19.1594967895
  H        30.8630379759       25.1663129673       15.6469767313
  H        29.8735885761       24.0069285517       16.5942669005
  H        30.9610127107       25.1523009967       17.4414813353
  H        28.4087931847       32.7623611278       20.6961027331
  H        28.2901372576       34.0530469361       21.9374218484
  H        26.8044260467       33.4008505957       21.1756784694
  H        25.0543674249       14.2012866530       27.7602674535
  H        25.1565540438       14.6613360628       29.4980777173
  H        25.9952461506       15.6354964039       28.2590643998
  H        30.9441079327       17.3147128115       17.2862604769
  H        30.3529498254       16.1720922939       18.5377664739
  H        30.7032028554       17.8608018492       18.9814737631
  H        25.7547090018       35.1790995478       26.8762780226
  H        26.2381464923       33.6541006977       27.6976357311
  H        24.6532603651       34.4142147206       28.0645662684
  H        30.2594054439       28.9541908114       17.6676165605
  H        30.7901283590       27.9725059663       19.0580517468
  H        31.6253692952       29.5215157914       18.6886063964
  H        22.5293474586       16.4667824776       33.6398499163
  H        24.0480654096       15.5260842638       33.4545984549
  H        23.1494103245       16.1023718408       32.0059038056
  H        31.4317470902       20.3340669290       17.8598312132
  H        32.0304493795       19.5656735570       19.3684997102
  H        33.0419543213       20.7800124748       18.5268775416
  H        25.3041315903       24.6346576879       34.4400373928
  H        25.7753583999       23.5416702950       33.1041705500
  H        24.9909094773       22.8673271758       34.5734856002
  H        25.2699657054       29.8263590453       34.1644923779
  H        24.7266888399       28.1338038247       34.3015533081
  H        23.9749221617       29.3969796756       35.3332969357
  H        26.0086076943       32.6286598845       31.2130128837
  H        26.6430822611       31.8304953339       32.6851924362
  H        25.1153408398       31.2516269898       31.9338307143
  H        29.9541509981       14.4145714062       25.5936024887
  H        30.4851678144       16.0631090205       26.0692780411
  H        29.6823680410       15.8005227656       24.4838023362
  H        28.8065238154       34.1721426315       26.3821847780
  H        29.4627848045       32.7055001470       25.6150434334
  H        30.4296816317       33.5717413591       26.8589493779
  H        32.5068132386       27.2383840597       21.1526701809
  H        33.4831897217       26.1145578420       22.1545556806
  H        32.1747463216       27.0912318946       22.8984075178
  H        32.6525196362       16.7752110610       22.4230134438
  H        31.8194023092       16.8611336570       24.0078000035
  H        32.9422999688       18.1685908463       23.5158366590
  H        32.6009080342       31.0081802335       24.1586522075
  H        31.7245889009       30.8831640072       25.7254842219
  H        30.9432714772       31.6689804373       24.3135379044
  H        30.2660292198       17.9026953867       30.2130919831
  H        29.6848276631       17.0771748113       31.6971953231
  H        29.3505347284       18.8265394290       31.4373820483
  H        28.8758498740       25.3186268399       33.9314958739
  H        28.4148431577       26.9620971246       34.5009375145
  H        29.4829414859       26.7562585831       33.0723969852
  H        27.2125731593       20.7982628480       33.9155048513
  H        27.6433605405       22.5275214249       34.0832972916
  H        28.7959497251       21.2641607804       34.6198531838
  H        35.0153660046       22.7870636225       23.6347354215
  H        34.3815175298       22.9457614767       25.3102292378
  H        33.5407146967       23.7607101379       23.9602422772
  H        32.4896759668       20.2804531920       28.4991458560
  H        32.5697673718       21.8991777080       29.2807262379
  H        32.2637890507       21.7616314956       27.5176658629
  H        31.5848330850       29.4274063313       30.7364990685
  H        31.4911451190       27.6482293978       30.9725408258
  H        29.9914112739       28.6353344024       30.9654223560
  H        33.7087531969       26.4225284497       25.8067617190
  H        34.5969757391       26.6137647553       27.3548117177
  H        32.8944299587       27.1660223052       27.2219700407
  H        34.0453642675       25.0762893172       32.6136454811
  H        33.4946625949       23.3896247638       32.3654155394
  H        32.9701754764       24.2948010473       33.8189372334
