115
Energy =  -1334.2633722045
 Pd        15.0468927970       14.8798925383       14.9279633820
 Ag        17.6635174595       15.8220597472       15.1721946208
 Ag        16.8125195625       13.3447393644       16.4840227427
 Ag        15.3666318429       17.6665447395       15.0581528598
 Ag        15.7818127184       15.8989458081       17.4335457950
 Ag        13.2963338735       16.4216651889       13.3795900175
 Ag        12.4130659714       13.8984577108       14.6993930643
 Ag        14.7411415507       12.0924799092       14.7656966939
 Ag        13.9410231675       13.6050937059       17.1727273480
 Ag        16.1246155228       16.1438868135       12.6536909219
 Ag        14.3347631957       13.8158892447       12.4408697255
 Ag        13.0455869717       16.2616067039       16.3181995117
 Ag        17.0215486317       13.4362569157       13.5429273352
 Ag        13.4362476676       15.8237583226       19.3025876442
 Ag        18.0839781339       18.4066925571       13.6476499569
 Ag        12.3328929716       11.0654824328       16.2568126846
 Ag        13.8845376176       15.9497900287       10.3392508896
 Ag        19.6344720934       13.4946720383       15.0699225672
 Ag        17.6042523038       18.3045180622       17.0143019289
 Ag        12.3327860651       11.5391102569       12.7964516920
 Ag        16.7716690578       14.0401395115       10.5487898883
 Ag        10.4753030461       16.3537139947       14.4912251810
 Ag        12.6258246189       18.9552729653       15.0670407256
 Ag        17.5314266550       10.7100809937       15.1966354826
 Ag        15.8912566551       13.4030565699       19.4830789294
  S        10.2738240336       18.7810790976       14.4478359458
  C         9.4273804097       19.3184680133       15.9879231112
  S        20.1588188788       15.8587101972       14.8051154696
  C        20.9770712113       16.3378329503       16.3821010349
  S        11.9714953424       17.0766823581       11.3426714853
  C        12.2170120224       18.8806553351       11.0857110171
  S        12.9830432702       11.7027813633       18.5150087164
  C        11.4769071441       12.3363293428       19.3580325094
  S        17.5833764061       11.9845976264       18.4565857362
  C        19.2254252069       12.6542789032       18.9426048314
  S        17.5579483403       17.7613843318       11.3516714125
  C        16.3568179729       19.0248156890       10.7695430913
  S        14.7612253556       20.0899681546       15.4715076821
  C        15.0362367274       21.0016877692       13.8955347246
  S        11.8800230474       17.4000644235       18.2549849420
  C        10.2522850724       16.5688112948       18.4783676103
  S        19.0808003903       19.5686748954       15.5424744662
  C        18.3735383977       21.2618617163       15.6287673157
  S        18.4631883839       12.6432395489       11.6278916000
  C        17.8600800779       10.9407790244       11.2803389838
  S        16.7745252017       17.4545908043       19.1561026568
  C        18.2317486200       16.5380631687       19.8047036844
  S        15.3289574303        9.6752601636       15.1431667817
  C        15.1516387676        8.8311701982       13.5194104188
  S        12.8503118864       12.7113686971       10.7256852783
  C        13.8670526180       11.5347265631        9.7426585872
  S         9.9067097595       13.9795336896       14.4174866924
  C         9.2692833297       13.5881869293       16.0965366744
  S        14.3483298085       14.4165026418       21.0697407026
  C        15.2796873999       15.6271429964       22.0902725107
  S        11.4451092781        9.8743376272       14.3290410266
  C         9.6385124163       10.1987034037       14.2377861501
  S        15.4377913399       14.9731311013        8.7395130494
  C        16.5176616070       16.2999965682        8.0720768165
  S        19.9229460102       11.1054731363       15.4171597084
  C        20.7352474238       10.5897025531       13.8517369339
  H        14.0929508274        8.5784977945       13.3806872265
  H        15.7501298507        7.9125680062       13.5245762038
  H        15.4767990834        9.4689384280       12.6912723271
  H        21.8039298874       10.8262667985       13.9200759449
  H        20.3073141366       11.1201294763       12.9912590495
  H        20.6116621048        9.5082750990       13.7225035667
  H        19.9864049528       12.1822234453       18.3087048512
  H        19.4181209282       12.4072546766       19.9932296595
  H        19.2770737037       13.7400171818       18.8119409537
  H        18.2039837271       10.6310566921       10.2863549409
  H        16.7667948216       10.8877503875       11.3147122464
  H        18.2650367804       10.2571538905       12.0385501406
  H         9.2443810727        9.7183956577       13.3340582753
  H         9.4315027446       11.2755374499       14.1880112987
  H         9.1517625626        9.7655206372       15.1191368680
  H        14.3947773663       12.1004378308        8.9646954962
  H        13.2052711666       10.7961140596        9.2750068235
  H        14.6023756466       11.0139890120       10.3644115435
  H        15.9053296390       17.0048677158        7.4979729224
  H        17.2602401845       15.8418036785        7.4077682120
  H        17.0397533104       16.8301185393        8.8796657191
  H        16.0248658831       15.0931644020       22.6910945372
  H        14.5730300869       16.1349831148       22.7577852505
  H        15.7753674367       16.3767522698       21.4597917146
  H        22.0126038714       15.9779282466       16.3706188356
  H        20.4609691016       15.9176188019       17.2514405043
  H        20.9677877730       17.4322158985       16.4569216294
  H        18.8923363767       17.2371866881       20.3310848163
  H        18.7917623709       16.0536469227       18.9978733096
  H        17.8866043091       15.7631353397       20.5022611075
  H        18.6712158083       21.8246920050       14.7365846777
  H        18.7737930062       21.7586642473       16.5208454990
  H        17.2790884970       21.2289259387       15.7004902190
  H        14.4468758339       20.5782991770       13.0761242001
  H        16.0997414520       20.9566378544       13.6259206383
  H        14.7411004981       22.0482110629       14.0402306205
  H        15.8256808879       18.6306421974        9.8930717595
  H        16.8959208396       19.9376162675       10.4895650134
  H        15.6218447052       19.2635033436       11.5445812497
  H         8.4058396643       18.9212066347       15.9975209663
  H         9.3898974284       20.4145607461       15.9976072137
  H         9.9688874421       18.9739716179       16.8775331627
  H        11.9834454784       19.1287260904       10.0435232154
  H        13.2452460035       19.1861232657       11.3052426805
  H        11.5324734569       19.4184853509       11.7534447937
  H         8.2218050353       13.9038736975       16.1700105862
  H         9.8526493194       14.0919765824       16.8734230862
  H         9.3360707422       12.5038226641       16.2565185038
  H        10.8468834575       11.4879668487       19.6506209114
  H        10.8997701185       13.0053463493       18.7115335253
  H        11.7912140276       12.8856463266       20.2543547937
  H         9.6447927349       16.7019476201       17.5733172637
  H         9.7393367599       17.0276898288       19.3325448627
  H        10.3689351204       15.4975096454       18.6700940891
