115
Energy =  -1327.2052068513
 Pt        14.9681769979       14.9012085607       14.8372041707
 Ag        17.5968094651       15.8003552538       15.1388258733
 Ag        16.6703527929       13.3372521117       16.4359273544
 Ag        15.3090915866       17.6840210447       14.9860059248
 Ag        15.6652816811       15.9151579992       17.3560030458
 Ag        13.2753158642       16.4651953239       13.2418728993
 Ag        12.3244631941       13.9711446345       14.5467225242
 Ag        14.6417682398       12.1154568746       14.6641484440
 Ag        13.7948247657       13.6256340189       17.0478461877
 Ag        16.1199972499       16.1646210628       12.6008316724
 Ag        14.2841770456       13.8493861982       12.3350315544
 Ag        12.9608663136       16.3074283521       16.1961454431
 Ag        16.9501942697       13.4439913448       13.4795198112
 Ag        13.2679604175       15.8575079946       19.1788063261
 Ag        18.0782324066       18.3899896251       13.6075092934
 Ag        12.1767959975       11.1195943603       16.1058425281
 Ag        13.9128841151       15.9967402958       10.2165606762
 Ag        19.5324343506       13.4474377539       15.0800301028
 Ag        17.5299471598       18.2853978380       16.9935443957
 Ag        12.2583022558       11.5980507010       12.6380214263
 Ag        16.7799460988       14.0528127034       10.4904668526
 Ag        10.4159554198       16.4247229277       14.3054946187
 Ag        12.5915261875       19.0102536067       14.9238829565
 Ag        17.3862220352       10.6940687725       15.1348640702
 Ag        15.7014095488       13.3999505788       19.4091655432
  S        10.2511452914       18.8540244924       14.2594233352
  C         9.3761140834       19.4038898242       15.7791381004
  S        20.0909107418       15.8104125136       14.8583396303
  C        20.8711362650       16.2671473600       16.4609688805
  S        12.0096259602       17.1638645157       11.1955564034
  C        12.2943817698       18.9632462343       10.9468071179
  S        12.7810757368       11.7580084490       18.3782179373
  C        11.2630291511       12.4073546668       19.1872574244
  S        17.4030252793       11.9730706397       18.4068989092
  C        19.0425916560       12.6220871822       18.9281169836
  S        17.5920004721       17.7341472770       11.3043697645
  S        14.7399114127       20.1082435902       15.3677312113
  C        15.0673008871       21.0090283072       13.7956977081
  S        11.7527547226       17.4486829927       18.0896565823
  C        10.1094097216       16.6364965690       18.2635761770
  S        19.0414096193       19.5230390094       15.5358105680
  C        18.3647237260       21.2292332251       15.6108740234
  S        18.4322757257       12.6410493090       11.6155824688
  C        17.8314600232       10.9429435668       11.2423259516
  S        16.6304832369       17.4361619866       19.1086920622
  C        18.0521462848       16.4958870518       19.8009332392
  S        15.1692837788        9.6904301867       15.0129129253
  C        15.0215258889        8.8675796247       13.3751744867
  S        12.8480013805       12.7669787000       10.5822527573
  C        13.8719919811       11.5787644045        9.6209151407
  S         9.8357909015       14.0524398319       14.2088083054
  C         9.1485074497       13.6554340017       15.8668600138
  S        14.1280756053       14.4292580720       20.9550455694
  C        15.0438437969       15.6216361205       22.0107771375
  S        11.3274476915        9.9409640551       14.1534056087
  C         9.5243556614       10.2704517440       14.0210235649
  S        15.4844973991       14.9886655471        8.6545875267
  C        16.5903884975       16.2951143496        7.9887058792
  S        19.7767783118       11.0520521204       15.4214494678
  C        20.6248059088       10.5277203046       13.8777901979
  C        16.4288089255       19.0124387240       10.6786174180
  H        15.8766472424       18.6010021267        9.8231586832
  H        16.9978396381       19.8927510321       10.3569025587
  H        15.7097055098       19.3093386069       11.4480601694
  H        18.6888785204       17.1791055243       20.3755074421
  H        18.6484316827       16.0304116306       19.0093320655
  H        17.6719372650       15.7048938299       20.4613771672
  H        15.7668137485       15.0749906720       22.6271439915
  H        14.3244373851       16.1311750527       22.6632131642
  H        15.5643553267       16.3709816437       21.4006215604
  H        19.8095337483       12.1544470223       18.2980838445
  H        19.2169296537       12.3557405035       19.9772522606
  H        19.1039095858       13.7093241582       18.8167593955
  H        10.6263736264       11.5638739382       19.4797261757
  H        10.6987978777       13.0689831997       18.5222289090
  H        11.5635891010       12.9669512275       20.0819486772
  H        18.6937823593       21.7880804469       14.7272338819
  H        18.7537672385       21.7165016785       16.5131279745
  H        17.2685647869       21.2170579622       15.6570627879
  H        14.7847957178       22.0604277145       13.9298041513
  H        14.4911581058       20.5915347697       12.9639802504
  H        16.1363770807       20.9468109213       13.5524859366
  H        12.0687301928       19.2192767082        9.9048003864
  H        13.3284087326       19.2455460449       11.1695243209
  H        11.6192740951       19.5130560288       11.6144284010
  H        15.9947990380       17.0032046153        7.4010841158
  H        17.3342429499       15.8207867831        7.3371507743
  H        17.1104798033       16.8250017210        8.7973385763
  H        18.2322363339       10.6247239145       10.2725719393
  H        16.7378186496       10.9028908433       11.2092584791
  H        18.1814689101       10.2588298136       12.0270261072
  H        21.6948830659       10.7465077116       13.9771652211
  H        20.2303698364       11.0673501328       13.0073328770
  H        20.4875808186        9.4488060441       13.7413672286
  H        13.9628856016        8.6345262852       13.2052870468
  H        15.6043076027        7.9389751420       13.3865387381
  H        15.3800887883        9.5088016231       12.5637427931
  H        21.9076771430       15.9098279081       16.4665317831
  H        20.3372581689       15.8313649140       17.3115720645
  H        20.8575471678       17.3602375175       16.5525623592
  H         8.3502377332       19.0180908730       15.7659616295
  H         9.3505796924       20.5003655298       15.7861271868
  H         9.8932029815       19.0548897864       16.6813137286
  H         9.5341588791       16.7700932552       17.3376072279
  H         9.5734490318       17.1076052231       19.0966959428
  H        10.2077692901       15.5655043162       18.4667475105
  H         8.0925909049       13.9492384134       15.9001677968
  H         9.6924646378       14.1756337782       16.6610867823
  H         9.2323902811       12.5734812865       16.0352959328
  H         9.1497329035        9.7914375917       13.1083549938
  H         9.3216873040       11.3477384094       13.9668110000
  H         9.0161724115        9.8384732330       14.8908164161
  H        14.4385316540       12.1402251966        8.8675730351
  H        13.2092906995       10.8610801959        9.1229365713
  H        14.5727812415       11.0341841931       10.2616984448
