115
Energy =  -1243.9960912265
 Ag        14.9309561927       14.9042515268       14.8470794694
 Ag        17.5628058495       15.8760006783       15.1172552817
 Ag        16.7257512996       13.3574482609       16.4015441146
 Ag        15.2905436057       17.7112750443       14.9657272314
 Ag        15.6538619081       15.9025134896       17.3912146893
 Ag        13.1677362852       16.4816830981       13.3047957591
 Ag        12.2855083139       13.8862045843       14.6203426773
 Ag        14.5868222809       12.0953096092       14.6713080315
 Ag        13.8060082279       13.6540372557       17.1268075175
 Ag        16.0058358811       16.1545540098       12.5366395067
 Ag        14.2484907785       13.8347444414       12.3263996382
 Ag        12.8930710593       16.3100092268       16.2097983080
 Ag        16.9299214685       13.4225601267       13.4861558415
 Ag        13.2718641935       15.8771174338       19.2483113737
 Ag        17.9739729400       18.4669259999       13.5395478536
 Ag        12.1865259068       11.0707973134       16.1856995240
 Ag        13.7596191344       15.9744767656       10.2317414721
 Ag        19.5559911111       13.5095956818       14.9919680068
 Ag        17.5231303247       18.3399571137       16.9821855167
 Ag        12.1917496287       11.5471016607       12.6871697321
 Ag        16.6925942271       14.0378562894       10.4302338324
 Ag        10.3196615177       16.3825628232       14.4007743305
 Ag        12.5136430703       19.0389744313       14.9832579993
 Ag        17.4238268774       10.7046107312       15.1259674293
 Ag        15.7636184674       13.4103209916       19.4318160792
  S        10.1912365243       18.7992939783       14.3420397417
  C         9.3094648683       19.3654399898       15.8513667222
  S        20.0331281232       15.8652452474       14.7063602764
  C        20.8862553620       16.3499634958       16.2636399009
  S        11.8555150078       17.0649595636       11.2603804822
  C        12.0637572679       18.8697849544       10.9745653476
  S        12.8600468514       11.7313434226       18.4154706422
  C        11.3522791002       12.3444383470       19.2714250037
  S        17.4194326527       11.9930071300       18.3777109840
  C        19.0710253234       12.6184758469       18.8907597506
  S        17.4220341050       17.7919320473       11.2771982489
  C        16.2063075325       19.0412547586       10.6930320399
  S        14.6595157835       20.1015007081       15.4094724442
  C        14.9569619725       21.0388402356       13.8520413025
  S        11.7669639782       17.4382205842       18.1505344917
  C        10.1247799648       16.6305253867       18.3586693659
  S        18.9625879067       19.5538988882       15.4620731884
  C        18.3037233770       21.2651758913       15.5671829289
  S        18.3393536643       12.6598584579       11.5586185103
  C        17.7466722322       10.9548443999       11.2009481468
  S        16.6557322455       17.4642763512       19.0741185942
  C        18.1002086273       16.5408633412       19.7433981582
  S        15.2165075803        9.7121123953       15.0807477304
  C        15.0426489937        8.8396224067       13.4710796663
  S        12.7124207954       12.7631350608       10.6611008251
  C        13.6952108864       11.5940441221        9.6348406061
  S         9.8019531316       14.0135988005       14.3261752880
  C         9.1395494423       13.6103848467       15.9932501113
  S        14.2017665359       14.4464481330       20.9626849316
  C        15.1238101460       15.6382698264       22.0126570217
  S        11.3394961430        9.9057541523       14.2409353443
  C         9.5273881553       10.1966191472       14.1453724248
  S        15.3340099307       14.9938022261        8.6756665759
  C        16.4019949291       16.3202210970        7.9896844136
  S        19.7954702037       11.1326004524       15.3524289380
  C        20.6188816721       10.5926335810       13.8011398689
  H        21.6874143330       10.8253888751       13.8795318197
  H        20.2022459929       11.1125805680       12.9295697436
  H        20.4906755610        9.5101698728       13.6889749958
  H        15.7788643245       17.0150108662        7.4154007916
  H        17.1385082173       15.8572794400        7.3223305556
  H        16.9287636500       16.8587786599        8.7877159826
  H        14.2145332959       12.1705536691        8.8595722545
  H        13.0102862640       10.8792650555        9.1642307462
  H        14.4325705929       11.0476060160       10.2308198284
  H        18.1161448100       10.6495033537       10.2150780729
  H        16.6535275538       10.8980758731       11.2100845658
  H        18.1402000738       10.2744981836       11.9676057748
  H        11.8184339161       19.0907806406        9.9293653704
  H        13.0861531176       19.2002085205       11.1826399091
  H        11.3691877943       19.4023076119       11.6355841729
  H        15.6724080285       18.6325667778        9.8251529131
  H        16.7411239261       19.9513167094       10.3975068446
  H        15.4773632389       19.2855468000       11.4715591924
  H        14.3550893771       20.6506607839       13.0248345311
  H        16.0190425602       20.9734819846       13.5820249904
  H        14.6879106006       22.0876654656       14.0257686195
  H        18.6145072278       21.8241360710       14.6774106717
  H        18.7264975767       21.7397691359       16.4606081854
  H        17.2100168360       21.2642664303       15.6461344950
  H        18.7459226576       17.2392155819       20.2884050435
  H        18.6778947180       16.0637811582       18.9452897437
  H        17.7388674725       15.7629269514       20.4288906249
  H        21.9184869521       15.9830458942       16.2276945293
  H        20.3875030936       15.9381848035       17.1464483571
  H        20.8857808848       17.4447021878       16.3281393302
  H        15.8535431553       15.0887973937       22.6179320014
  H        14.4069973550       16.1389908286       22.6741100679
  H        15.6344079947       16.3927729869       21.4013376496
  H        19.8256635356       12.1506927414       18.2466045580
  H        19.2494286861       12.3303448953       19.9331493804
  H        19.1432432323       13.7064149174       18.7978377958
  H         8.0828575975       13.8989872370       16.0360368174
  H         9.6892599344       14.1319098771       16.7823051474
  H         9.2296321026       12.5283136463       16.1558080549
  H         9.1483012850        9.7080670983       13.2399941740
  H         9.2987906291       11.2683656020       14.0962382347
  H         9.0497065247        9.7508581686       15.0250551401
  H         8.2869879529       18.9715310642       15.8385326827
  H         9.2768828339       20.4613210029       15.8374662225
  H         9.8262492504       19.0351863725       16.7600319883
  H         9.5384849191       16.7507994671       17.4381715674
  H         9.6041212171       17.1202863271       19.1903083853
  H        10.2234359272       15.5636897712       18.5810820700
  H        10.7398556690       11.4837553126       19.5644010084
  H        10.7606541503       13.0069773938       18.6321122434
  H        11.6675783518       12.8918037447       20.1682204749
  H        13.9838490794        8.5871788594       13.3348590589
  H        15.6375945882        7.9195590628       13.5018148022
  H        15.3754597122        9.4587870889       12.6325545113
