101
Energy =  -1006.8775856696
 Au        15.0004823834       15.0000693926       14.9998986087
 Au        16.8508404295       12.9557287594       15.4141202259
 Au        16.5059961200       14.7920551109       17.7668598099
 Au        14.3324863837       16.7400356474       17.1370171333
 Au        17.5039657318       15.1988018996       13.7740329757
 Au        17.1727125451       16.9251952314       16.2503319655
 Au        15.8628483557       17.7396929512       13.0524372204
 Au        18.9327102369       12.7604991077       18.1968475543
 Au        20.4007328687       16.2550900107       14.9169259788
 Au        16.5366078065       18.1793333706       19.5313142517
 Cd        18.9459239323       16.1244077063       18.2774844138
  S        14.7327817002       16.9893751278       11.1140879081
  S        17.1199069317       18.8326151857       14.7387605395
  S        18.3073081026       11.3139725539       16.4388081003
  S        19.5283254802       14.1590526377       19.9970430868
  S        19.5160970779       16.0601836301       12.7498204463
  S        21.2967523023       16.4491419807       17.0760732075
  S        14.2177621764       17.9381568372       19.2487699666
  S        18.8598573877       18.3330908948       19.8324647359
  C        16.0327456704       16.1408868551       10.1334493821
  C        15.9247074488       19.9959418506       15.5081623831
  C        19.7660477026       11.3400025033       15.3188732253
  C        21.3629146566       14.1155568763       20.0787988431
  C        20.3294711285       14.5776728244       12.0264034569
  C        21.5977063588       18.2497945858       17.2788802095
  C        13.5683341126       19.6108809199       18.8581935441
  C        19.1648193991       17.6825981526       21.5236913149
 Au        13.1504209595       17.0446601097       14.5854744977
 Au        13.4951740572       15.2083602027       12.2329052067
 Au        15.6687987253       13.2604290472       12.8625343731
 Au        12.4969735570       14.8018840312       16.2259547144
 Au        12.8285643640       13.0753275481       13.7496720225
 Au        14.1379871091       12.2606940999       16.9475775793
 Au        11.0684329996       17.2403496822       11.8027748951
 Au         9.6006801361       13.7452275961       15.0831229379
 Au        13.4648889714       11.8211889476       10.4682252939
 Cd        11.0554597239       13.8760359767       11.7222649303
  S        15.2682563697       13.0111812314       18.8857575559
  S        12.8813379594       11.1676710614       15.2609811924
  S        11.6943048855       18.6867613755       13.5607307990
  S        10.4723863160       15.8415781475       10.0029180391
  S        10.4848930159       13.9405393210       17.2503712038
  S         8.7048684710       13.5510014676       12.9239190425
  S        15.7837235878       12.0624042703       10.7507210503
  S        11.1416327774       11.6676659913       10.1670326382
  C        13.9687008931       13.8601392320       19.8665721114
  C        14.0769515711       10.0048012497       14.4914666065
  C        10.2358120082       18.6607899368       14.6809611640
  C         8.6377603512       15.8848766748        9.9218689400
  C         9.6713214511       15.4231227896       17.9734339352
  C         8.4035336663       11.7503829492       12.7212207470
  C        16.4332461878       10.3897203091       11.1413528675
  C        10.8370596741       12.3186248859        8.4759070728
  H        13.6235565868        9.6234075275       13.5687405429
  H        14.2581252115        9.1807675185       15.1909077215
  H        15.0189436008       10.5149823413       14.2614775952
  H         7.5590677815       11.4580998618       13.3547020831
  H         9.2884936072       11.1647808955       12.9891775383
  H         8.1595039419       11.5676862898       11.6682601635
  H        11.3629771858       11.6966315571        7.7438038910
  H        11.1613837062       13.3608273845        8.3829491732
  H         9.7569962276       12.2601155244        8.2926384111
  H         8.3080443197       16.9089305322        9.7159730955
  H         8.1851693132       15.5248618595       10.8521432984
  H         8.3315234427       15.2319662405        9.0950154281
  H        16.7303941343       16.8976157332        9.7574009105
  H        15.5385205241       15.6364353485        9.2950668445
  H        16.5688720910       15.4060891303       10.7440356017
  H        19.7840316718       14.3134424920       11.1127475588
  H        20.3105359549       13.7317489016       12.7190831457
  H        21.3658182522       14.8361502606       11.7799284427
  H        22.4420955324       18.5423597837       16.6454484317
  H        21.8416287929       18.4324639689       18.3318704075
  H        20.7125572222       18.8351445406       17.0109759325
  H        21.6924147071       13.0914499732       20.2847794587
  H        21.6688801656       14.7683834563       20.9058114477
  H        21.8159328886       14.4755563474       19.1487194732
  H        18.6388886890       18.3046262501       22.2557647079
  H        20.2449089897       17.7414547706       21.7067686991
  H        18.8407931664       16.6403400090       21.6169451112
  H        14.4635170174       14.3670952425       20.7030538320
  H        13.2726017308       13.1033317728       20.2453933642
  H        13.4306074048       14.5927959670       19.2551199603
  H        10.2165434151       15.6874276280       18.8872028439
  H         8.6349166797       15.1646937850       18.2197032717
  H         9.6904278991       16.2689914055       17.2806905451
  H        10.5268006805       19.1477131422       15.6190053006
  H         9.9076174316       17.6362510148       14.8828617125
  H         9.4250123759       19.2253129235       14.2061925462
  H        12.5199813780       19.4988895336       18.5570607686
  H        14.1322112784       20.0843952867       18.0494244480
  H        13.6302977235       20.2260321871       19.7633723128
  H        16.3787168953       20.3781640792       16.4302464830
  H        14.9829201007       19.4858653533       15.7392223063
  H        15.7429385584       20.8193445827       14.8081444415
  H        19.4754162259       10.8527989328       14.3808598193
  H        20.5768104944       10.7757259578       15.7940063900
  H        20.0941452108       12.3645515549       15.1168293150
  H        17.4813633520       10.5018848105       11.4432092774
  H        16.3720171552        9.7747602820       10.2359858784
  H        15.8689356327        9.9159168030       11.9496423594
