349
Energy =  -2024.3310575995
 Au        19.9764844212       22.8866478211       19.5756810286
 Au        22.9852874489       24.1511921341       20.5612641201
 Au        24.7086975944       21.1215805381       21.2871358512
 Au        22.1926321034       18.6876064997       21.3019817385
 Au        18.7382382320       21.6366345572       21.9660844663
 Au        17.1028823893       24.0423917192       20.0911825164
 Au        18.6002984810       23.8445822931       16.8395380114
 Au        20.1916400297       20.8736977911       17.2330454451
 Au        21.5592721381       21.5245668439       21.8894941049
 Au        19.9996653832       21.6662047604       24.9270869290
 Au        17.0538112112       19.7840188377       24.0546123238
 Au        17.6407700777       18.6482297709       20.8042699296
 Au        20.0262834759       17.1127647250       20.4218615020
 Au        17.0175586343       15.8478898835       19.4364940633
 Au        15.2938290357       18.8775088856       18.7112720057
 Au        17.8099831089       21.3117800357       18.6959144934
 Au        21.2647368791       18.3629678112       18.0316613145
 Au        22.8995841392       15.9569280792       19.9067342842
 Au        21.4017549721       16.1550949005       23.1585393710
 Au        19.8109230790       19.1257286195       22.7647471901
 Au        18.4435583643       18.4749083965       18.1081971551
 Au        20.0023593569       18.3330589378       15.0707027198
 Au        22.9484308277       20.2150228238       15.9432281753
 Au        22.3620339387       21.3510260552       19.1934939499
 Pd        20.0013642376       19.9996906537       19.9988894504
  S        20.8550025680       25.0991878477       20.2432900451
  S        25.1979487277       23.3714549816       20.7643761109
  S        24.5523449180       18.8328050090       21.8178555374
  S        17.2504600017       25.3165060873       18.1048955580
  S        19.9543709358       22.5393898580       15.4102878996
  S        16.6797475593       22.8908963967       22.0966743546
  S        22.1664297670       22.2131067799       24.1902244236
  S        17.8498399979       21.2072003498       25.7742300993
  S        15.9156363453       18.4430674941       22.4917718848
  C        21.0426389518       26.1919964143       18.7645426076
  H        21.6857554466       25.7013030616       18.0268081577
  H        20.0350491939       26.2701459360       18.3339811056
  C        21.5697169231       27.5923516185       19.1322982547
  H        20.9341307648       28.0201370866       19.9199119856
  H        21.4364215468       28.2267774041       18.2406074542
  C        23.0197038158       27.6410397532       19.5605005021
  C        24.0470903364       27.4853870710       18.6150450306
  H        23.7963938308       27.3345609622       17.5647191470
  C        25.3887146699       27.5268193992       19.0039360888
  H        26.1695360844       27.4067724446       18.2555898421
  C        25.7266033704       27.7314198849       20.3468158678
  H        26.7718676046       27.7753391421       20.6469975767
  C        24.7136796875       27.8880954704       21.2974668688
  H        24.9589152947       28.0465916521       22.3465369165
  C        23.3713869556       27.8394528407       20.9042322901
  H        22.5873205790       27.9568575677       21.6509902474
  C        25.8341577628       24.0963783168       22.3394733927
  H        25.7615255071       25.1851318289       22.2197455880
  H        25.1802723814       23.7980461953       23.1649688250
  C        27.2836457754       23.6597528037       22.6121784572
  H        27.3261609959       22.5612314278       22.6467669550
  H        27.9248283732       23.9782794198       21.7785193888
  C        27.7786314254       24.2465204347       23.9168421400
  C        28.3513304218       25.5278012787       23.9573524571
  H        28.4811070340       26.0820067838       23.0286554904
  C        28.7579453376       26.0951155712       25.1692187107
  H        29.2060600691       27.0866202284       25.1797028452
  C        28.5953244453       25.3877175733       26.3650510838
  H        28.9123312418       25.8266774364       27.3086641791
  C        28.0291342359       24.1091459616       26.3384260102
  H        27.9051753660       23.5465039135       27.2614974269
  C        27.6244292697       23.5458508793       25.1237932236
  H        27.1876649794       22.5473621698       25.1121670491
  C        24.5628462705       18.8653586572       23.6643568123
  H        23.7885827016       19.5601564016       24.0079944024
  H        24.2855362759       17.8531770662       23.9903635357
  C        25.9437393831       19.2615097656       24.2122021894
  H        26.7119934008       18.5959714058       23.7948145332
  H        26.1742897333       20.2775495713       23.8536379160
  C        25.9838852337       19.2097815326       25.7248327396
  C        26.7577295847       18.2468645284       26.3915631140
  H        27.3464028106       17.5403592696       25.8070461310
  C        26.7801145198       18.1859906650       27.7894433280
  H        27.3882955720       17.4342691225       28.2884686911
  C        26.0222559717       19.0868717130       28.5435617558
  H        26.0372562761       19.0399750030       29.6304096475
  C        25.2450955661       20.0503283908       27.8905058753
  H        24.6537977809       20.7570752839       28.4693454085
  C        25.2270458764       20.1112882225       26.4936043762
  H        24.6142665506       20.8615367662       25.9929147809
  C        16.8600979204       24.1433077657       23.4350290463
  H        16.0217665896       24.8395330420       23.2996118932
  H        16.6940357753       23.5917574850       24.3705999176
  C        18.1968123485       24.8944308812       23.4749464277
  H        19.0006683428       24.1487560535       23.5956330005
  H        18.3672299094       25.3867982780       22.5066063556
  C        18.2358488496       25.9033891634       24.6016216772
  C        18.1167408950       27.2782603294       24.3443342266
  H        18.0192763467       27.6182810209       23.3143028310
  C        18.1290455743       28.2093933465       25.3888142534
  H        18.0381162063       29.2711232018       25.1681729740
  C        18.2581893184       27.7778250885       26.7123543124
  H        18.2704132954       28.5000521360       27.5259243205
  C        18.3771022026       26.4099491403       26.9828757136
  H        18.4839425086       26.0659977450       28.0096532338
  C        18.3660068632       25.4829875324       25.9365814770
  H        18.4651995853       24.4180883660       26.1509228729
  C        15.5887509002       25.0870980189       17.3300688656
  H        15.6780698165       25.4662406142       16.3036628494
  H        15.3722359453       24.0147409560       17.2848365778
  C        14.4822750842       25.8192291081       18.1063860219
  H        14.6982121096       26.8957944485       18.1397161416
  H        14.4827347189       25.4559848368       19.1453218052
  C        13.1357563493       25.5678145567       17.4616023169
  C        12.5774704973       26.4898918889       16.5629950805
  H        13.1041796165       27.4215488895       16.3613397926
  C        11.3562662929       26.2291917098       15.9317948697
  H        10.9361502436       26.9587767930       15.2427063360
  C        10.6742226688       25.0360132159       16.1895137833
  H         9.7221353723       24.8333352543       15.7036261833
  C        11.2199217005       24.1085790947       17.0841923459
  H        10.6907765269       23.1820985545       17.2984368745
  C        12.4404990613       24.3730001657       17.7130101503
  H        12.8621890564       23.6476590381       18.4086106982
  C        18.7850034752       21.8153238730       14.1724184550
  H        19.1885311147       20.8177630737       13.9397302406
  H        17.8094492118       21.6691537060       14.6455775525
  C        18.6655197716       22.6633538363       12.8924225083
  H        19.6687165903       22.8577814592       12.4868158174
  H        18.1404280753       22.0427175819       12.1480487830
  C        17.9147805684       23.9645712993       13.0667411423
  C        18.5937149827       25.1878409034       13.1712746325
  H        19.6812865406       25.1971135318       13.1132457598
  C        17.8931300322       26.3861168985       13.3448923275
  H        18.4371919840       27.3253314317       13.4214724947
  C        16.4969195975       26.3783338354       13.4163557840
  H        15.9496201450       27.3101109618       13.5438129201
  C        15.8075823162       25.1649238701       13.3110686318
  H        14.7202070803       25.1479158938       13.3576832435
  C        16.5118337274       23.9697858563       13.1370065181
  H        15.9642098710       23.0317696668       13.0431722392
  C        22.2941733713       24.0549984392       24.2370857014
  H        23.0584267903       24.3110787595       23.4899400757
  H        21.3537823778       24.4985816445       23.8936653653
  C        22.6879633091       24.5677002190       25.6337035317
  H        21.8490735805       24.4005275744       26.3248756318
  H        23.5356114999       23.9783813968       26.0100274549
  C        23.0662697677       26.0347396898       25.5944947707
  C        24.4154931652       26.4233207575       25.5731507929
  H        25.1959751949       25.6641453730       25.6228186808
  C        24.7718897410       27.7741814430       25.4969114129
  H        25.8241267701       28.0518221961       25.4910226841
  C        23.7809434505       28.7591283917       25.4355050092
  H        24.0554782547       29.8104306541       25.3784902294
  C        22.4333254950       28.3831090991       25.4568458820
  H        21.6530327880       29.1403567558       25.4173484947
  C        22.0794530289       27.0326736348       25.5366964924
  H        21.0267070301       26.7525436167       25.5598760627
  C        18.0836801321       20.0818237195       27.2209055973
  H        18.6524273261       19.2022858093       26.9017143482
  H        18.6847259398       20.6366664117       27.9524450163
  C        16.7282606005       19.6651706799       27.8177506196
  H        16.1807379196       20.5599721733       28.1444840294
  H        16.1258924477       19.1934320349       27.0271226926
  C        16.9185100782       18.7080529386       28.9752290228
  C        17.0194292623       17.3254724705       28.7505117037
  H        16.9169660945       16.9379768516       27.7370449146
  C        17.2377775588       16.4402383102       29.8106820801
  H        17.3048367002       15.3717761662       29.6163505295
  C        17.3613141128       16.9261924330       31.1164040633
  H        17.5287587438       16.2387148648       31.9427492204
  C        17.2606989603       18.3006031735       31.3538684237
  H        17.3489163758       18.6859512692       32.3674129726
  C        17.0418361533       19.1824209904       30.2905523392
  H        16.9595993010       20.2514837691       30.4812640691
  C        16.2113748655       16.7203207810       23.0894831626
  H        15.7700222575       16.0660727120       22.3243106829
  H        17.2912024557       16.5375249166       23.1090858317
  C        15.5869799907       16.4630768628       24.4702425516
  H        16.0386463343       17.1675064459       25.1868184075
  H        14.5114754025       16.6848449831       24.4416878420
  C        15.8158964488       15.0346792816       24.9177049072
  C        14.7624626611       14.1082506336       24.9545295571
  H        13.7596587874       14.4331882400       24.6808593594
  C        14.9840587639       12.7814569977       25.3402542401
  H        14.1534445709       12.0790578610       25.3664225592
  C        16.2696454251       12.3582931707       25.6910959770
  H        16.4441467859       11.3269136287       25.9901577783
  C        17.3289878766       13.2722032709       25.6575576770
  H        18.3335370238       12.9528613409       25.9294705704
  C        17.1034926329       14.5981909118       25.2756965192
  H        17.9349549483       15.3039025402       25.2502529105
  S        19.1481894548       14.9003225206       19.7534102570
  S        14.8047829446       16.6275805705       19.2340882704
  S        15.4501331669       21.1663325483       18.1807362424
  S        23.3227946847       17.1079320632       17.9009677415
  S        22.7518200262       14.6832604047       21.8933025052
  S        20.0474427330       17.4601417368       24.5877116704
  S        17.8355691696       17.7864561459       15.8076983331
  S        22.1521606996       18.7920828817       14.2235099369
  S        24.0869516990       21.5560913941       17.5057782906
  C        18.9617759515       13.8065146996       21.2315614508
  H        18.3188035638       14.2964533550       21.9699230441
  H        19.9696200019       13.7285525628       21.6615416152
  C        18.4351490905       12.4061513267       20.8631754420
  H        19.0704601657       11.9791634983       20.0749066998
  H        18.5692426860       11.7711938543       21.7543679249
  C        16.9849313359       12.3572205247       20.4358136139
  C        15.9581262874       12.5123332190       21.3819876373
  H        16.2094596996       12.6627173626       22.4322221808
  C        14.6162609780       12.4710454424       20.9939332940
  H        13.8359336448       12.5907283413       21.7428537773
  C        14.2775345656       12.2670937671       19.6511652369
  H        13.2320854090       12.2233023308       19.3516098506
  C        15.2898746162       12.1108931830       18.6998183357
  H        15.0439911564       11.9528828141       17.6508266620
  C        16.6324236174       12.1594161834       19.0922157765
  H        17.4160128706       12.0424458028       18.3448884295
  C        14.1679193126       15.9026495450       17.6592624880
  H        14.2405479758       14.8138952136       17.7789727148
  H        14.8214950543       16.2009461131       16.8335046443
  C        12.7183608006       16.3394295952       17.3871480012
  H        12.6758831663       17.4379531007       17.3526930875
  H        12.0774520910       16.0207961129       18.2209878425
  C        12.2228547763       15.7527840795       16.0826318187
  C        11.6501921683       14.4714827547       16.0420730147
  H        11.5209078010       13.9171243250       16.9707388286
  C        11.2430678436       13.9043921908       14.8302728351
  H        10.7950395668       12.9128567027       14.8198466709
  C        11.4051531152       14.6120463161       13.6345134015
  H        11.0876832800       14.1732324190       12.6910080750
  C        11.9711950715       15.8907008386       13.6611628515
  H        12.0946966451       16.4534530142       12.7381095086
  C        12.3764436998       16.4537229567       14.8757475434
  H        12.8131284997       17.4522348210       14.8872947225
  C        15.4389453846       21.1340087211       16.3342419056
  H        16.2130542425       20.4392323763       15.9902078260
  H        15.7161503558       22.1462254894       16.0082554971
  C        14.0578223631       20.7379541874       15.7869050769
  H        13.2897650284       21.4034457165       16.2047306042
  H        13.8274079570       19.7218761541       16.1454514905
  C        14.0169826043       20.7898792533       14.2743038639
  C        13.2428898463       21.7529520279       13.6080850848
  H        12.6545669074       22.4594308861       14.1929850406
  C        13.2197992250       21.8139761966       12.2102236507
  H        12.6114318957       22.5658093655       11.7115931820
  C        13.9771786571       20.9131071870       11.4556133063
  H        13.9616205921       20.9601182422       10.3687780080
  C        14.7545830432       19.9495081109       12.1081726074
  H        15.3455034521       19.2427612692       11.5289483271
  C        14.7733418678       19.8883777670       13.5050579026
  H        15.3863042260       19.1380180746       14.0053565537
  C        23.1418048684       15.8554101341       16.5627876144
  H        23.9799675196       15.1589606797       16.6981029114
  H        23.3078497834       16.4068244763       15.6271312549
  C        21.8048672132       15.1046801916       16.5231995121
  H        21.0012029374       15.8506179059       16.4028036243
  H        21.6345397980       14.6123097569       17.4915474210
  C        21.7651101175       14.0958119012       15.3964608040
  C        21.8704125295       11.7897936519       14.6090843604
  H        21.9608277510       10.7280041857       14.8296266471
  C        21.7411765802       12.2215223423       13.2856053108
  C        21.6229914525       13.5894876075       13.0152062212
  H        21.5160242729       13.9335677142       11.9884831977
  C        21.6348315705       14.5163647403       14.0615562086
  H        21.5361679126       15.5813358849       13.8473187043
  C        24.4133767506       14.9128730862       22.6683407572
  H        24.3238719635       14.5340159251       23.6948366919
  H        24.6298726273       15.9852460326       22.7133090814
  C        25.5200331318       14.1805605312       21.8924735143
  H        25.3041355191       13.1039812740       21.8593629045
  H        25.5198403967       14.5435432517       20.8534467669
  C        26.8663580793       14.4321903824       22.5375758472
  C        27.4243786609       13.5104058784       23.4366524998
  H        26.8976559453       12.5787634237       23.6383614947
  C        28.6453647103       13.7713361636       24.0681710583
  H        29.0652720109       13.0419746096       24.7576242863
  C        29.3274083904       14.9644962588       23.8103779564
  H        30.2793159726       15.1673670842       24.2965381279
  C        28.7819436084       15.8916570509       22.9152726079
  H        29.3111174045       16.8181008116       22.7009469965
  C        27.5616175704       15.6269757324       22.2860687147
  H        27.1401158396       16.3521291925       21.5901593436
  C        21.2164738044       18.1840643976       25.8259884857
  H        20.8127601631       19.1815131461       26.0588298560
  H        22.1921031725       18.3304937042       25.3530585430
  C        21.3358701370       17.3357262809       27.1058102380
  H        20.3326424022       17.1410729301       27.5112272712
  H        21.8607889935       17.9562372439       27.8504068585
  C        22.0868041968       16.0346564394       26.9311849806
  C        21.4080012812       14.8114340408       26.8252566051
  H        20.3203904231       14.8020317555       26.8825397172
  C        22.1087789363       13.6133384928       26.6511097207
  H        21.5648179267       12.6741578058       26.5734256846
  C        23.5050423900       13.6212398080       26.5805723981
  H        24.0524754638       12.6895953177       26.4527104230
  C        24.1942294133       14.8346059319       26.6872866450
  H        25.2816346436       14.8517217300       26.6413858387
  C        23.4898026156       16.0295729485       26.8618320715
  H        24.0373022870       16.9675513295       26.9567134559
  H        21.7283088459       11.4993591173       12.4719913556
  C        21.8835715581       12.7208658167       15.6536245462
  H        21.9810938274       12.3806989910       16.6836029223
  C        17.7074934150       15.9445850136       15.7609178289
  H        16.9435627680       15.6886436037       16.5084427671
  H        18.6479727471       15.5008485962       16.1038870428
  C        17.3129472855       15.4319590452       14.3644848549
  H        18.1515562873       15.5989658781       13.6729330641
  H        16.4652606600       16.0214602598       13.9885404252
  C        16.9343409219       13.9649973036       14.4037717069
  C        15.5850368162       13.5766580506       14.4245071433
  H        14.8047188912       14.3359707790       14.3744743238
  C        15.2283566202       12.2258623770       14.5006394231
  H        14.1760631118       11.9484220072       14.5060199011
  C        16.2190849302       11.2407426975       14.5625421346
  H        15.9443348937       10.1894873738       14.6194443788
  C        17.5667881152       11.6165259755       14.5418624414
  H        18.3469156597       10.8591330484       14.5817839633
  C        17.9209474777       12.9668886249       14.4621188670
  H        18.9737599503       13.2468192031       14.4393997147
  C        21.9180038348       19.9177422635       12.7771043841
  H        21.3489763532       20.7970222250       13.0965105712
  H        21.3171375419       19.3628677420       12.0454429272
  C        23.2732685574       20.3349803661       12.1803374303
  H        23.8211882140       19.4404261264       11.8535788438
  H        23.8754186090       20.8069728802       12.9709739543
  C        23.0825983694       21.2920450571       11.0228773693
  C        22.9816455583       22.6746448153       11.2474884841
  H        23.0844802506       23.0622418043       12.2608765897
  C        22.7629371982       23.5597578009       10.1872964598
  H        22.6958217079       24.6282347318       10.3815893848
  C        22.6389104593       23.0736719858        8.8816745599
  H        22.4711183570       23.7610796722        8.0553420095
  C        22.7395133709       21.6992411956        8.6443102877
  H        22.6510207491       21.3138180226        7.6308150890
  C        22.9588784871       20.8175489681        9.7076315011
  H        23.0410830986       19.7484758555        9.5169783094
  C        23.7911865810       23.2786938876       16.9076125770
  H        24.2329935260       23.9331660953       17.6723301797
  H        22.7113703610       23.4615991553       16.8884565417
  C        24.4149709478       23.5352005152       15.5264377892
  H        23.9630731110       22.8301952702       14.8105584824
  H        25.4904988318       23.3135184298       15.5546746148
  C        24.1857933110       24.9632119853       15.0778574024
  C        25.2393821506       25.8893692474       15.0386425749
  H        26.2424418741       25.5645461493       15.3115110041
  C        25.0176006628       27.2157523211       14.6515891933
  H        25.8483397781       27.9179312588       14.6236110408
  C        23.7316863765       27.6387804465       14.3017755015
  H        23.5570436474       28.6698487906       14.0017253866
  C        22.6722075959       26.7251191245       14.3376652750
  H        21.6673928178       27.0443522106       14.0666086275
  C        22.8978736321       25.3995421185       14.7208252483
  H        22.0662907751       24.6940438598       14.7480069639
