349
Energy =  -2017.2579258826
 Au        19.9756871282       22.8826631916       19.6263945175
 Au        22.9825767340       24.1565531878       20.5595539902
 Au        24.7242793816       21.1198028371       21.2753065434
 Au        22.2124894650       18.6990382343       21.2510127109
 Au        18.6479797933       21.5925155843       21.9487190561
 Au        17.0785115972       24.0504033215       20.1179860115
 Au        18.5896812319       23.8462830630       16.8542039055
 Au        20.1824345883       20.9103040499       17.2649632150
 Au        21.4871015335       21.5079436352       21.9216069911
 Au        19.9923198337       21.6669851953       24.9269727306
 Au        17.0384088687       19.7625389571       24.0360656804
 Au        17.6289272571       18.6437940720       20.7951371392
 Au        20.0240236560       17.1169648171       20.3741214508
 Au        17.0172760892       15.8431163560       19.4408091637
 Au        15.2755009085       18.8798592102       18.7250086663
 Au        17.7872849031       21.3006560507       18.7492150427
 Au        21.3517728250       18.4070486926       18.0518461943
 Au        22.9212876886       15.9490928842       19.8824747795
 Au        21.4100852921       16.1532392277       23.1461882584
 Au        19.8173540930       19.0892029011       22.7354315431
 Au        18.5126003588       18.4916463769       18.0788408021
 Au        20.0074915910       18.3326065839       15.0735031236
 Au        22.9613545133       20.2369569454       15.9644521826
 Au        22.3707531147       21.3558766089       19.2053075285
 Pt        19.9998181112       19.9998242806       20.0002197360
  S        20.8473452165       25.1001493746       20.2436738091
  S        25.1962029491       23.3767125149       20.7660435314
  S        24.5588076838       18.8278823101       21.7959057388
  S        17.2438007545       25.3152557342       18.1266091845
  S        19.9487987255       22.5403907666       15.4276645369
  S        16.6313276187       22.9035608045       22.1230192047
  S        22.1582414125       22.2207352035       24.1817282168
  S        17.8404952400       21.1835877094       25.7570180130
  S        15.8995562230       18.4150872202       22.4742867152
  C        21.0224899427       26.1765793490       18.7513824267
  H        21.6688207785       25.6824865314       18.0188402104
  H        20.0138836111       26.2425149881       18.3213640550
  C        21.5397089969       27.5844128823       19.1041268086
  H        20.8985256834       28.0177949975       19.8841439547
  H        21.4059819096       28.2070262891       18.2042635546
  C        22.9877455769       27.6449479500       19.5375163851
  C        24.0195364504       27.4871863433       18.5973281518
  H        23.7737672055       27.3297223269       17.5468213946
  C        25.3593686110       27.5343961848       18.9918897449
  H        26.1437507235       27.4124787833       18.2475690610
  C        25.6907148070       27.7466734989       20.3351710939
  H        26.7345298224       27.7942864850       20.6398373119
  C        24.6732683310       27.9063572639       21.2804465833
  H        24.9134057510       28.0707908304       22.3297740994
  C        23.3329053111       27.8524580841       20.8814672868
  H        22.5452411007       27.9715801752       21.6241408440
  C        25.8293573146       24.0983214955       22.3436919938
  H        25.7576699630       25.1873673131       22.2258554307
  H        25.1736251259       23.7990540688       23.1673372806
  C        27.2779564078       23.6599104199       22.6182382426
  H        27.3199365659       22.5611503160       22.6456435298
  H        27.9216767339       23.9836755643       21.7885406203
  C        27.7691149726       24.2375039270       23.9283465213
  C        28.3397982893       25.5193575936       23.9800860984
  H        28.4706202934       26.0810435923       23.0560692343
  C        28.7426947142       26.0777069435       25.1972875733
  H        29.1891653448       27.0698124139       25.2166875154
  C        28.5783928154       25.3607816663       26.3872541251
  H        28.8925349892       25.7929885029       27.3349113036
  C        28.0142718078       24.0815717944       26.3494561147
  H        27.8891963644       23.5115817199       27.2678390346
  C        27.6132633223       23.5272289776       25.1295126278
  H        27.1782368862       22.5281933268       25.1089796240
  C        24.5569483154       18.8555474031       23.6423785938
  H        23.7870213506       19.5567747156       23.9825715794
  H        24.2688498042       17.8450676496       23.9644267642
  C        25.9391401812       19.2385929061       24.1962363708
  H        26.7027549238       18.5659246404       23.7817700295
  H        26.1805727012       20.2523936509       23.8384641487
  C        25.9733444510       19.1866015641       25.7089063491
  C        26.7367702464       18.2171985656       26.3781485335
  H        27.3215434708       17.5057944615       25.7956473963
  C        26.7539001115       18.1562038024       27.7761034070
  H        27.3536504854       17.3990912498       28.2771646661
  C        26.0014865339       19.0637512339       28.5276621253
  H        26.0124841624       19.0167436806       29.6145577597
  C        25.2349874457       20.0339886022       27.8720746423
  H        24.6479305792       20.7459061694       28.4489105579
  C        25.2219521103       20.0948651755       26.4751057198
  H        24.6173989044       20.8504108066       25.9724116599
  C        16.8505059050       24.1426119755       23.4674826422
  H        16.0207484605       24.8519192822       23.3469630953
  H        16.6884805633       23.5878020081       24.4018208530
  C        18.1980598317       24.8744117804       23.4942949956
  H        18.9929787796       24.1176360004       23.6045043734
  H        18.3640109424       25.3673204295       22.5253958145
  C        18.2615623986       25.8800592194       24.6228512932
  C        18.1496602579       27.2563805273       24.3699083469
  H        18.0424822990       27.5992411323       23.3417452637
  C        18.1815112855       28.1851156297       25.4160819717
  H        18.0960657028       29.2479573067       25.1987412275
  C        18.3232234654       27.7496000621       26.7370743332
  H        18.3505332888       28.4698195286       27.5520229647
  C        18.4358396591       26.3802871499       27.0031818591
  H        18.5529538582       26.0333963736       28.0278791009
  C        18.4054555789       25.4556990196       25.9551530736
  H        18.5001105293       24.3895754771       26.1655708020
  C        15.5827111692       25.0985320152       17.3472392689
  H        15.6792607772       25.4736892637       16.3199982564
  H        15.3561046396       24.0281979202       17.3042987553
  C        14.4802692034       25.8434059620       18.1169499607
  H        14.7052888280       26.9182024265       18.1460890311
  H        14.4742779369       25.4848588007       19.1574446821
  C        13.1339031860       25.6001070994       17.4686835970
  C        12.5901147618       26.5188245558       16.5578478744
  H        13.1274248323       27.4429574902       16.3497821467
  C        11.3697369780       26.2643486147       15.9225693298
  H        10.9609493899       26.9912713529       15.2238953968
  C        10.6739430768       25.0809115651       16.1884480652
  H         9.7225581289       24.8831032720       15.6991738629
  C        11.2049034754       24.1570960557       17.0956366908
  H        10.6651161026       23.2382989354       17.3161698550
  C        12.4247198266       24.4153617862       17.7285763135
  H        12.8349780414       23.6930583809       18.4340519693
  C        18.7841092417       21.8072792817       14.1904363108
  H        19.1847767815       20.8057043919       13.9697176358
  H        17.8050782763       21.6706479381       14.6591546903
  C        18.6772930467       22.6446530044       12.9027080753
  H        19.6833348169       22.8233983905       12.4969259351
  H        18.1460164744       22.0232663698       12.1632876999
  C        17.9428464961       23.9569862914       13.0639046853
  C        18.6364270325       25.1741886566       13.1372275003
  H        19.7231034100       25.1704398495       13.0635332186
  C        17.9513951441       26.3830200744       13.2995396097
  H        18.5065199026       27.3174536640       13.3516317480
  C        16.5563981593       26.3920148953       13.3911830521
  H        16.0212406182       27.3318568654       13.5105869406
  C        15.8525101071       25.1847157041       13.3161848384
  H        14.7657171410       25.1806538776       13.3773818869
  C        16.5412111484       23.9790381433       13.1526993258
  H        15.9822022383       23.0457704821       13.0817233934
  C        22.2878708764       24.0629423729       24.2196997405
  H        23.0363142265       24.3164840340       23.4555863404
  H        21.3404228597       24.5063112759       23.8960478689
  C        22.7115722351       24.5756367210       25.6073907074
  H        21.8875217232       24.4084625140       26.3162634787
  H        23.5669022210       23.9861596470       25.9658351925
  C        23.0894610732       26.0427527048       25.5624724076
  C        24.4382668756       26.4321284981       25.5345554702
  H        25.2194471541       25.6735415468       25.5814944165
  C        24.7934285213       27.7832472437       25.4560658174
  H        25.8454669482       28.0615171912       25.4456663618
  C        23.8016821896       28.7675645450       25.3987748518
  H        24.0752670883       29.8190270392       25.3401014644
  C        22.4544036112       28.3906453205       25.4267593130
  H        21.6734641399       29.1474324293       25.3911192225
  C        22.1017818382       27.0400912366       25.5089679342
  H        21.0493674097       26.7593785250       25.5378287344
  C        18.0758428703       20.0572517125       27.2022576782
  H        18.6485531277       19.1803218341       26.8829501040
  H        18.6734812169       20.6134455401       27.9355916316
  C        16.7211111382       19.6344005691       27.7960296135
  H        16.1701868387       20.5264044130       28.1246757074
  H        16.1212777702       19.1630438237       27.0031881624
  C        16.9121252860       18.6743199812       28.9508450752
  C        17.0102388989       17.2920261213       28.7232970292
  H        16.9062220551       16.9066449124       27.7091948832
  C        17.2271023851       16.4042298741       29.7817004874
  H        17.2915283141       15.3359894735       29.5851064378
  C        17.3520267188       16.8872948516       31.0883567369
  H        17.5176379217       16.1977735856       31.9133881022
  C        17.2547920871       18.2615078376       31.3285520059
  H        17.3439134840       18.6446687002       32.3428388932
  C        17.0375019522       19.1458074637       30.2669855365
  H        16.9576776022       20.2147048965       30.4596995261
  C        16.2016285309       16.6958167226       23.0775388028
  H        15.7682124544       16.0361451807       22.3124593686
  H        17.2824155839       16.5198310726       23.1039701068
  C        15.5712682761       16.4412928147       24.4560034233
  H        16.0114569686       17.1553614452       25.1703599386
  H        14.4938402306       16.6522851629       24.4195869879
  C        15.8112908119       15.0187478718       24.9161887210
  C        14.7638730268       14.0862774747       24.9678539672
  H        13.7579339453       14.4017062948       24.6946243437
  C        14.9953592635       12.7653584654       25.3676570358
  H        14.1692205694       12.0582014314       25.4050475899
  C        16.2849336709       12.3541663374       25.7179535503
  H        16.4670391742       11.3272599922       26.0277267917
  C        17.3384496575       13.2741743078       25.6696861521
  H        18.3462535871       12.9643372257       25.9406654346
  C        17.1030519306       14.5943247760       25.2738983105
  H        17.9301790805       15.3046228752       25.2376074971
  S        19.1524633052       14.8994621454       19.7568242492
  S        14.8036504617       16.6229288657       19.2342398634
  S        15.4409452379       21.1717726166       18.2043794618
  S        23.3684259700       17.0960010004       17.8774792550
  S        22.7559188463       14.6842032376       21.8738092054
  S        20.0510188658       17.4591489174       24.5727513038
  S        17.8415234973       17.7789525936       15.8186438736
  S        22.1593533322       18.8158606409       14.2435055290
  S        24.1001541523       21.5845141978       17.5261567654
  C        18.9772015578       13.8230224637       21.2490989788
  H        18.3308514790       14.3171220970       21.9816208401
  H        19.9857837996       13.7570541608       21.6791730174
  C        18.4599724310       12.4152032886       20.8963122558
  H        19.1012063653       11.9818213939       20.1163362814
  H        18.5936089923       11.7925789463       21.7961805881
  C        17.0119767789       12.3547400159       20.4627726520
  C        15.9800999591       12.5125359055       21.4028605949
  H        16.2257549368       12.6699985758       22.4533940521
  C        14.6403031893       12.4654403264       21.0081603682
  H        13.8558449271       12.5874157087       21.7523913063
  C        14.3090785418       12.2532019205       19.6648433206
  H        13.2652958330       12.2056573090       19.3600591914
  C        15.3266104330       12.0933922762       18.7196796530
  H        15.0865784140       11.9289969595       17.6703213743
  C        16.6669352981       12.1472345002       19.1187907373
  H        17.4546755119       12.0280365964       18.3762094775
  C        14.1705371389       15.9013336575       17.6565693490
  H        14.2422842519       14.8122877644       17.7743840354
  H        14.8262699636       16.2006420555       16.8329393709
  C        12.7219145426       16.3396829850       17.3820430294
  H        12.6799148166       17.4384439633       17.3546840898
  H        12.0782212533       16.0158618829       18.2117324723
  C        12.2308213001       15.7621447977       16.0718806591
  C        11.6600877953       14.4803342544       16.0200876085
  H        11.5292703400       13.9185487258       16.9440568009
  C        11.2572909852       13.9219836837       14.8028471338
  H        10.8107912844       12.9298988762       14.7833684139
  C        11.4216088878       14.6389734202       13.6129184698
  H        11.1074997598       14.2068293212       12.6652181857
  C        11.9856785719       15.9182100041       13.6507823095
  H        12.1108312352       16.4882326006       12.7324339329
  C        12.3867052830       16.4724592981       14.8707491011
  H        12.8216969363       17.4715220434       14.8913858675
  C        15.4428455360       21.1440884251       16.3579089212
  H        16.2126507448       20.4427086008       16.0177509972
  H        15.7311451587       22.1545094796       16.0358599907
  C        14.0605998872       20.7613051433       15.8040143789
  H        13.2970856270       21.4340854218       16.2184829461
  H        13.8189788297       19.7475241469       16.1617155162
  C        14.0264379054       20.8133705040       14.2913443278
  C        13.2631325669       21.7828783194       13.6221179981
  H        12.6784603612       22.4943541574       14.2046348145
  C        13.2459616098       21.8438784600       12.2241625976
  H        12.6462982742       22.6010726515       11.7231198207
  C        13.9982573537       20.9362476756       11.4725878577
  H        13.9871974790       20.9832261935       10.3856914721
  C        14.7646871948       19.9659371563       12.1281485569
  H        15.3516794658       19.2539759533       11.5513003540
  C        14.7777564446       19.9050706596       13.5251169484
  H        15.3822582397       19.1494748002       14.0277956738
  C        23.1492996991       15.8569948131       16.5329677986
  H        23.9790209556       15.1476493887       16.6535344059
  H        23.3114110754       16.4118160189       15.5986525663
  C        21.8017264773       15.1252416599       16.5060219651
  H        21.0068240105       15.8820366537       16.3957577069
  H        21.6356597961       14.6322914803       17.4748801560
  C        21.7382599210       14.1196262486       15.3774307577
  C        21.8184200792       11.8145855281       14.5841287021
  H        21.9038446057       10.7517309674       14.8014517086
  C        21.6766863096       12.2501252601       13.2631605068
  C        21.5640637785       13.6194460868       12.9970801378
  H        21.4469622344       13.9663601569       11.9723940400
  C        21.5944379131       14.5440158347       14.0451381694
  H        21.4997433411       15.6101382327       13.8347297782
  C        24.4169752529       14.9008145477       22.6532818041
  H        24.3203533766       14.5256147289       23.6805016400
  H        24.6436238335       15.9711365106       22.6962908040
  C        25.5194473866       14.1559392886       21.8836149649
  H        25.2944015758       13.0811500524       21.8544050459
  H        25.5255329374       14.5145341274       20.8431377062
  C        26.8657614951       14.3991855457       22.5320078006
  C        27.4094596718       13.4804260234       23.4428498907
  H        26.8721027297       12.5563102486       23.6508569411
  C        28.6297811895       13.7348808680       24.0782630528
  H        29.0385066176       13.0079111607       24.7769229015
  C        29.3256263304       14.9183023027       23.8124571335
  H        30.2769816680       15.1160714765       24.3018077234
  C        28.7947503332       15.8421470034       22.9052516846
  H        29.3345624960       16.7609523150       22.6848083030
  C        27.5749669462       15.5839405724       22.2722273775
  H        27.1647872933       16.3062628546       21.5667245615
  C        21.2157272749       18.1923095557       25.8099394989
  H        20.8150917708       19.1939115665       26.0305863554
  H        22.1947790635       18.3288504356       25.3412367163
  C        21.3224828321       17.3550216708       27.0977293475
  H        20.3164328857       17.1763510719       27.5035228399
  H        21.8537595897       17.9764511346       27.8371161494
  C        22.0568910462       16.0426425746       26.9367255922
  C        21.3632375196       14.8254785297       26.8634668937
  H        20.2765524865       14.8292881541       26.9370619368
  C        22.0482054632       13.6165954207       26.7012760674
  H        21.4930445851       12.6821769070       26.6492975577
  C        23.4432183234       13.6074935528       26.6098282634
  H        23.9783388747       12.6676153122       26.4905452791
  C        24.1471670456       14.8147634018       26.6847171835
  H        25.2339655536       14.8187625424       26.6236106747
  C        23.4585296506       16.0205070879       26.8479851151
  H        24.0175771813       16.9537519906       26.9189430261
  H        21.6494125519       11.5299212694       12.4481990177
  C        21.8502007827       12.7432993164       15.6303263940
  H        21.9573752529       12.4004137884       16.6584786749
  C        17.7118776943       15.9367499676       15.7805197808
  H        16.9634732229       15.6831460855       16.5446474906
  H        18.6593443613       15.4933666349       16.1040935040
  C        17.2881238746       15.4241509522       14.3928085391
  H        18.1121314417       15.5913965676       13.6839057772
  H        16.4327537625       16.0136212146       14.0344447200
  C        16.9102987943       13.9570130212       14.4376557246
  C        15.5615129238       13.5675669151       14.4654994954
  H        14.7802943326       14.3261150332       14.4185700393
  C        15.2064162033       12.2164254845       14.5438838971
  H        14.1543916240       11.9381006714       14.5542340143
  C        16.1982090093       11.2321541506       14.6011798272
  H        15.9246767054       10.1806742703       14.6597683289
  C        17.5454701094       11.6091421413       14.5732633708
  H        18.3264496802       10.8523958692       14.6089006576
  C        17.8980253138       12.9597199998       14.4911481535
  H        18.9504273457       13.2404854724       14.4623545074
  C        21.9239585415       19.9422228978       12.7983079137
  H        21.3513306814       20.8191842865       13.1176653819
  H        21.3262410464       19.3860893085       12.0649912109
  C        23.2786352716       20.3650314266       12.2043990012
  H        23.8295258395       19.4730204656       11.8757087086
  H        23.8785700034       20.8363840033       12.9971633850
  C        23.0875294017       21.3251097268       11.0496004328
  C        22.9894921409       22.7074122770       11.2771259199
  H        23.0937159424       23.0928012047       12.2912060177
  C        22.7724679728       23.5951716243       10.2187262983
  H        22.7081535238       24.6634199726       10.4153124875
  C        22.6473223260       23.1120636255        8.9121051666
  H        22.4815662855       23.8015837001        8.0870943187
  C        22.7443714791       21.7378367831        8.6719604320
  H        22.6550632275       21.3546610333        7.6576898955
  C        22.9618317059       20.8535667968        9.7335149695
  H        23.0415596045       19.7846573233        9.5408080530
  C        23.7980521043       23.3037495643       16.9228252857
  H        24.2315122924       23.9634383198       17.6878648726
  H        22.7172611527       23.4797283989       16.8964863014
  C        24.4282809926       23.5582882214       15.5443068238
  H        23.9880098642       22.8442331290       14.8299867864
  H        25.5057102768       23.3472755986       15.5806123284
  C        24.1881725632       24.9808473202       15.0841997098
  C        25.2356016200       25.9132958737       15.0323262445
  H        26.2415895621       25.5978915104       15.3053990447
  C        25.0040413452       27.2342018721       14.6325130392
  H        25.8301709972       27.9413670968       14.5949711931
  C        23.7144182161       27.6454004380       14.2824591723
  H        23.5322645187       28.6722891594       13.9726559504
  C        22.6609017531       26.7253997159       14.3309560104
  H        21.6530460598       27.0352311511       14.0601684836
  C        22.8963490363       25.4052483877       14.7267248227
  H        22.0692138986       24.6949540626       14.7631962317
