115
Energy =  -1162.2632475913
 Au        14.9710004094       17.8309067879       14.5325307966
 Au        17.9266731047       19.0727342501       15.6532697402
 Au        19.7647334701       16.0846339415       16.4394665369
 Au        17.4365896026       13.6698486696       15.9889101169
 Au        13.3737740895       16.4485076983       16.7187955599
 Au        11.9873394166       19.0676371975       15.0551445749
 Au        13.4429693050       18.6979967570       11.7798107469
 Au        15.3099421635       15.9118116896       12.2611965433
 Au        16.6632321532       16.5113916081       16.9249076491
 Cd        14.7779887689       16.3518576282       19.1742884653
 Au        11.7906195336       14.8446035761       19.0771848980
 Au        12.5573631771       13.7147048374       15.7896021073
 Au        15.1559477254       12.0863585474       15.2581582655
 Au        12.0246200576       10.8690508370       14.4665537376
 Au        10.2254073026       13.8431202893       13.6580286073
 Au        12.7199824634       16.2681523931       13.7528082867
 Au        16.6819657474       13.5091135772       13.1049326366
 Au        18.0384632851       10.8257809414       14.6960237045
 Au        16.6312284173       11.1580610108       17.9809099710
 Au        14.8848142090       14.0283802326       17.6096158599
 Au        13.4816659545       13.4700017894       13.1573111282
 Au        15.3754850074       13.4532167128       10.2468715214
 Au        18.3005657792       15.3455945073       11.0812120108
 Au        17.5639348576       16.2258313577       14.2195407968
 Au        15.0818299331       15.0029551184       14.9891305112
  S        15.7905682765       19.9957057764       15.2818566031
  S        20.1527168919       18.3763070995       16.0156579069
  S        19.6826441785       13.7815103369       16.9451465979
  S        11.7968019265       18.2459545694       17.2575513679
  S        12.0493275035       20.1770607300       12.9773932712
  S        14.9405541470       17.4811080640       10.4211245347
  S        17.1178787208       17.3716930338       19.2728416446
  S        12.6658367544       16.4277636935       20.6138838369
  S        10.8502573744       13.3474890202       17.5288328994
  C        15.9721609629       21.0903803689       13.8192435787
  H        14.9654735491       21.4061985388       13.5194807574
  H        16.4530994909       20.5683277101       12.9873703772
  C        20.5784172401       19.0368563896       17.6753063064
  H        20.5639372593       20.1314048941       17.6246851278
  H        21.5889624256       18.6901762509       17.9214833329
  C        19.4264454373       13.7786116962       18.7627373737
  H        19.0418240767       12.7893576408       19.0451873569
  H        18.7116404470       14.5526088168       19.0603992018
  C        12.6977311517       19.5352032407       18.2086277207
  H        13.6693580941       19.7580870698       17.7555898807
  H        12.8237874021       19.1718754167       19.2361701850
  C        10.3665951423       19.9234423013       12.2899193546
  H        10.0543514459       18.8776734041       12.3834191591
  H        10.3775441168       20.2295186162       11.2379883193
  C        13.8659820160       16.6637923467        9.1777450452
  H        14.4576094652       15.8814761589        8.6852225064
  H        13.5518542465       17.4171246146        8.4460827684
  C        16.7898742947       19.1802912760       19.2707599643
  H        17.6219979906       19.6793245505       18.7585203242
  H        16.7292577728       19.5255291759       20.3094546498
  C        13.0246112994       15.5113336971       22.1650299317
  H        13.4665821904       14.5310809231       21.9643781911
  H        12.0756181314       15.3754989900       22.6970887537
  C        11.2415678025       11.6945944384       18.2244223819
  H        11.0216135084       10.9554651102       17.4431243766
  H        10.5931405956       11.5250022892       19.0917011251
  S        14.1747504695        9.9245942965       14.6326766416
  S         9.7964716520       11.6261518517       14.3396778339
  S        10.3965177221       16.0966092166       12.9899172093
  S        18.1600334365       11.6572027998       12.4945341934
  S        18.0403712284        9.7056832483       16.7711721997
  S        15.1023208316       12.3290153473       19.3507397018
  S        13.1682541911       12.8798990637       10.8354049315
  S        17.5513276633       13.8431811008        9.4223233459
  S        19.3065932656       16.8234288525       12.6111640891
  C        14.1148454504        8.8411419103       16.1134092934
  H        13.4587894359        7.9908691726       15.8953100564
  H        13.7504059276        9.3834720039       16.9903850820
  C         9.0847406040       10.8058134712       12.8574949032
  H         9.0273640355        9.7302772944       13.0598447756
  H         9.6907213339       10.9866222984       11.9653120772
  C        10.5066934278       15.9820982711       11.1610685239
  H        10.8711501290       16.9479743120       10.7876306626
  H         9.5029838829       15.7851602328       10.7665489734
  C        17.1432137098       10.4350452924       11.5757019482
  H        17.7434731505        9.5274644586       11.4420544314
  H        16.8986781757       10.8706958617       10.5983269044
  C        19.7287603927        9.9899390562       17.4315813781
  H        20.0201586201       11.0419734530       17.3376683348
  H        20.4159757434        9.3654519809       16.8487778228
  C        16.1291474905       12.9505263860       20.7414438224
  H        16.9838090440       13.5325405706       20.3855902426
  H        16.4804755874       12.0906167102       21.3234967683
  C        13.1155211307       11.0480586259       10.7425416313
  H        13.9685128195       10.5960386377       11.2565323375
  H        13.1118753668       10.7557471788        9.6862713904
  C        17.3367098126       14.8882263666        7.9277668014
  H        16.7803102530       14.3114905808        7.1804187994
  H        18.3368449256       15.1235404054        7.5448699182
  C        18.8063371203       18.4786899887       11.9929126443
  H        17.7450551474       18.5003647153       11.7257049942
  H        19.4180731231       18.7167270971       11.1151425029
  H        16.5662538269       21.9638694874       14.1110958073
  H        19.8727485998       18.6811983903       18.4335172122
  H        20.3920973093       13.9593833413       19.2490702408
  H        12.0817354550       20.4421878818       18.2171895279
  H         9.6801304110       20.5638466180       12.8559955882
  H        12.9911367101       16.2028618249        9.6429981814
  H        15.8651205657       19.4298567407       18.7404751268
  H        13.7046329250       16.1151043005       22.7768452933
  H        12.2921405754       11.6210688850       18.5228460005
  H        15.1350156425        8.4853839492       16.3020491575
  H         8.0766374919       11.2093856003       12.7070271879
  H        11.1887210232       15.1825053566       10.8530326958
  H        16.2246118948       10.1942308032       12.1201393336
  H        19.7442372768        9.6772589413       18.4815031393
  H        15.4932906657       13.5810018106       21.3749284004
  H        12.1896816017       10.7189225407       11.2303393196
  H        16.8074627668       15.8167774241        8.1621122806
  H        19.0035784928       19.2016052510       12.7955107060
