115
Energy =  -1162.2853970018
 Au        14.9547847741       17.8427195604       14.5797296401
 Au        17.9388230133       19.1180685414       15.5740501824
 Au        19.7687208094       16.1395233533       16.3989948446
 Au        17.3617067874       13.7024244017       16.0869967136
 Au        13.4148886143       16.5419784994       16.7857452835
 Au        11.9818969210       19.1030333312       15.2327933535
 Au        13.4031483345       18.6947477108       11.9325258931
 Au        15.2605473472       15.8282095852       12.2263632992
 Au        16.5222562073       16.5236077866       16.8909582049
 Au        14.7696777435       16.5993967940       19.8410578820
 Au        11.8052260546       14.6712260840       18.9616392387
 Au        12.5477201343       13.7578383714       15.7616978583
 Au        15.1328520577       12.1153022398       15.3380984992
 Au        12.0607566074       10.8799720427       14.3919764290
 Au        10.2394396587       13.8627076102       13.5847001946
 Au        12.6792217514       16.2421102311       13.8415152268
 Au        16.6039885131       13.4832857089       13.1029161466
 Au        18.0095026328       10.8596157841       14.8146973672
 Au        16.6077416829       11.2380739454       18.1227181148
 Cd        14.7882331653       14.1763172856       17.6678885780
 Au        13.4918019484       13.4595806452       13.0779466464
 Au        15.2992534730       13.3896431901       10.1687054294
 Au        18.2325469876       15.2750181821       11.0447668858
 Au        17.4944558308       16.2319068619       14.2090487013
 Au        15.0193269514       14.9883913742       14.9802392980
  S        15.7989936979       20.0378779262       15.2236522791
  S        20.1663906126       18.3952094593       15.8374506726
  S        19.6443186877       13.8559486854       16.9696444470
  S        11.8647469714       18.3114707011       17.4518938099
  S        12.0148503826       20.1760812606       13.1374720662
  S        14.9081793284       17.5336702734       10.5351688434
  S        16.9589956446       17.2060231161       19.2086164812
  S        12.5780811159       16.1850793684       20.5966401345
  S        10.8136352041       13.2078735981       17.4127838969
  C        15.9718505898       21.0923404813       13.7306799253
  H        14.9637300597       21.4007754355       13.4280714307
  H        16.4485043437       20.5487703977       12.9102980450
  C        20.7679365326       19.1666064325       17.3919986736
  H        20.7791915058       20.2533975176       17.2516836073
  H        21.7878201389       18.8047237305       17.5678224304
  C        19.4530079812       13.9036778844       18.7945025833
  H        19.0689100599       12.9266279106       19.1168706646
  H        18.7621709474       14.6961783123       19.1008361594
  C        12.8577770453       19.5700771197       18.3490783368
  H        13.7784623766       19.8078744061       17.8068644103
  H        13.0975610364       19.1630005484       19.3395329453
  C        10.3254592908       19.9183497268       12.4697796155
  H        10.0153667526       18.8724033835       12.5706890935
  H        10.3229354882       20.2217901684       11.4170262048
  C        13.8666053135       16.7918708701        9.2187820234
  H        14.4667743561       16.0274333350        8.7094928879
  H        13.5854916025       17.5833721184        8.5144965485
  C        16.9243137331       19.0411142849       19.2586793298
  H        17.8127175620       19.4033784117       18.7263616405
  H        16.9526711648       19.3622240025       20.3061761447
  C        12.7310253805       15.1951402643       22.1348376719
  H        13.2604184374       14.2544135223       21.9581117968
  H        11.7157288363       14.9825957367       22.4901334573
  C        11.2326798519       11.5363120744       18.0460032440
  H        11.0264629383       10.8231750519       17.2368358404
  H        10.5883185214       11.3242457213       18.9069353480
  S        14.1957213581        9.9413446121       14.7122156928
  S         9.8330064086       11.6104430539       14.1495548662
  S        10.3833078800       16.1430083167       13.0120215240
  S        18.1391684945       11.6571360744       12.6030129023
  S        18.0080620191        9.7801585468       16.9122915509
  S        15.0940578057       12.4115800774       19.5142675736
  S        13.1003181431       12.7836326311       10.7723518810
  S        17.4872739394       13.7738430578        9.3831762466
  S        19.2394962482       16.7481708874       12.5796354251
  C        14.0428185212        8.8929350973       16.2111441024
  H        13.4174037279        8.0267782999       15.9667100901
  H        13.6057461265        9.4487522070       17.0453089849
  C         9.2280171521       10.8483821487       12.5916197830
  H         9.2061475760        9.7614769579       12.7296654916
  H         9.8675345082       11.1066919882       11.7427065467
  C        10.5351549052       16.0895044258       11.1832443254
  H        10.9163337687       17.0644630983       10.8516669777
  H         9.5393840775       15.9140952684       10.7595731018
  C        17.1617856619       10.4028294528       11.6840157750
  H        17.7818511360        9.5059535695       11.5706476709
  H        16.9249041191       10.8225903263       10.6979680301
  C        19.7001928308       10.0646991747       17.5625587083
  H        19.9970752383       11.1136360037       17.4529402072
  H        20.3813134552        9.4285418342       16.9851401914
  C        16.1361883246       13.1835081573       20.8144156763
  H        17.0210746736       13.6666294025       20.3912469453
  H        16.4387411429       12.4020832544       21.5204277991
  C        13.1176031039       10.9486877586       10.7121578061
  H        13.9998965417       10.5411083475       11.2135756880
  H        13.1030202955       10.6362390746        9.6617043413
  C        17.3090722360       14.8072070318        7.8756408527
  H        16.7672571514       14.2248148205        7.1219970206
  H        18.3178887021       15.0366333681        7.5126479871
  C        18.7856158335       18.4047922310       11.9301531250
  H        17.7281277360       18.4483165610       11.6506364720
  H        19.4120470979       18.6122831496       11.0549452741
  H        16.5676764044       21.9731002232       13.9963031194
  H        20.1343795029       18.9041569988       18.2440929912
  H        20.4389906675       14.0821673256       19.2392938193
  H        12.2469573246       20.4741400834       18.4555215026
  H         9.6455321418       20.5600321457       13.0423305146
  H        12.9718888602       16.3200261560        9.6324286381
  H        16.0323025502       19.4375222279       18.7653723110
  H        13.2653879383       15.7975426377       22.8780186607
  H        12.2840872815       11.4664848868       18.3422232015
  H        15.0516381014        8.5593476918       16.4830759324
  H         8.2122004105       11.2203408879       12.4136426946
  H        11.2181391147       15.2948486646       10.8653308257
  H        16.2390797010       10.1505524343       12.2162626338
  H        19.7182750060        9.7658425432       18.6164155081
  H        15.5295966456       13.9395929919       21.3281568011
  H        12.2184304541       10.5883512293       11.2271968595
  H        16.7766309950       15.7388797366        8.0881331050
  H        18.9936657942       19.1360425548       12.7223495732
