115
Energy =  -1162.2726931352
 Au        14.8669413982       17.8759615750       14.6587537029
 Au        17.9626010383       19.0996616571       15.6012903636
 Au        19.7559917127       16.1584652238       16.3991296392
 Au        17.3286080212       13.6777295252       16.1388645685
 Au        13.4122861905       16.4852091719       16.9092921795
 Au        12.0023036877       19.1184085399       15.1769562300
 Au        13.3803222221       18.7344444485       11.9110403724
 Au        15.2523112041       15.8427510985       12.2430953663
 Au        16.5734327043       16.5155296239       16.8992990620
 Au        14.6818447257       16.5883295822       19.8252278635
 Au        11.7859858079       14.7246824119       18.9566295204
 Au        12.5206151639       13.7373238042       15.7536467268
 Au        15.1313520629       12.1234058108       15.3424795819
 Au        12.0357797204       10.9000240809       14.3980837978
 Au        10.2425768784       13.8411325575       13.6000799694
 Au        12.6698052966       16.3215533132       13.8617221619
 Au        16.5853207230       13.5133098335       13.0906530385
 Au        17.9959858651       10.8807332948       14.8241811427
 Au        16.6180184824       11.2648450048       18.0900997803
 Au        14.7457224216       14.1555239413       17.7565902156
 Au        13.4253319291       13.4837797654       13.1001915537
 Au        15.3158267579       13.4096592373       10.1742013601
 Au        18.2115720191       15.2734312165       11.0424998129
 Au        17.4773985876       16.2621545465       14.2458820049
 Cd        14.9992299724       14.9996007395       15.0000210731
  S        15.8185855138       20.0269480631       15.3460777422
  S        20.2015503651       18.3915446409       15.7867525687
  S        19.6169676938       13.8890428555       17.0024795097
  S        11.8785488117       18.3352836907       17.3913952620
  S        11.9669224211       20.2081346425       13.0886040581
  S        14.9147063229       17.5743977479       10.5517197095
  S        16.8990718402       17.1275276875       19.2463792630
  S        12.4834498789       16.2624351315       20.6045221117
  S        10.8088112461       13.2208034828       17.4393413283
  C        15.9363416903       21.1107441704       13.8686190245
  H        14.9196360091       21.4408800527       13.6232236227
  H        16.3618188038       20.5764985619       13.0145532201
  C        20.8511176840       19.1824609264       17.3122529617
  H        20.8797331105       20.2656685127       17.1485147595
  H        21.8674758113       18.8046890227       17.4742601266
  C        19.4271986052       13.9525728224       18.8268407051
  H        19.0595965933       12.9720289784       19.1570879797
  H        18.7213969998       14.7349733211       19.1254208331
  C        12.8628272347       19.5913018054       18.3002225666
  H        13.7954181802       19.8210489531       17.7745549466
  H        13.0825043344       19.1842382442       19.2954578245
  C        10.2768754718       19.8903348217       12.4483537241
  H         9.9994816739       18.8367902469       12.5664582768
  H        10.2513435662       20.1793902361       11.3918945319
  C        13.9043525175       16.8421243903        9.2062573578
  H        14.5284345184       16.1037836745        8.6873578053
  H        13.6128781836       17.6417637202        8.5156232567
  C        16.9497736863       18.9606394589       19.3359707048
  H        17.8827264276       19.2910393367       18.8630781219
  H        16.9354637270       19.2580820126       20.3906860833
  C        12.6339764217       15.2648414436       22.1392122147
  H        13.1706113490       14.3288348921       21.9592623577
  H        11.6187230215       15.0437964926       22.4892230161
  C        11.2886222585       11.5752633438       18.0966278421
  H        11.0885959216       10.8381666208       17.3078615446
  H        10.6669550067       11.3625359338       18.9739331115
  S        14.1796670391        9.9727512319       14.6544037293
  S         9.7968152297       11.6079358567       14.2118483040
  S        10.3817452745       16.1106265870       12.9971462399
  S        18.1195550927       11.6635040033       12.6096157076
  S        18.0315446732        9.7912099505       16.9126414109
  S        15.0837997909       12.4251719207       19.4494181221
  S        13.0986134118       12.8707397359       10.7533704208
  S        17.5143665381       13.7349448178        9.3951732480
  S        19.1886430059       16.7777082389       12.5594670682
  C        14.0610147041        8.8889763317       16.1318025967
  H        13.4388380893        8.0228613947       15.8792036246
  H        13.6350231197        9.4232478192       16.9855975587
  C         9.1477825487       10.8173805061       12.6859363713
  H         9.1193278900        9.7341109477       12.8492847126
  H         9.7686536740       11.0490185478       11.8158822749
  C        10.5722206231       16.0473771346       11.1728541762
  H        10.9400022013       17.0279619626       10.8429198033
  H         9.5894254409       15.8485169463       10.7298955161
  C        17.1356145009       10.4070486507       11.7010229892
  H        17.7433490430        9.4993949046       11.6090951307
  H        16.9159694663       10.8138071623       10.7056577597
  C        19.7215567419       10.1093371933       17.5528385027
  H        19.9988717536       11.1628646680       17.4344126242
  H        20.4128026694        9.4806245794       16.9795230834
  C        16.0947517392       13.1583557779       20.7939425483
  H        16.9826453964       13.6607104279       20.4015041380
  H        16.3866435024       12.3591440188       21.4848957252
  C        13.0480873355       11.0375915537       10.6643704551
  H        13.8931153122       10.5884236931       11.1940000682
  H        13.0619587029       10.7398351544        9.6097365317
  C        17.3643012972       14.7314754961        7.8597490354
  H        16.8363089161       14.1305267027        7.1108664087
  H        18.3796541036       14.9522147790        7.5098332438
  C        18.7089146219       18.4231052599       11.9017762630
  H        17.6504005288       18.4508839221       11.6237105112
  H        19.3306682535       18.6356005456       11.0244759673
  H        16.5586562603       21.9768613779       14.1208731072
  H        20.2303938448       18.9512654524       18.1825280584
  H        20.4101636611       14.1515371730       19.2693779389
  H        12.2552806392       20.4990508051       18.3924529562
  H         9.5856904912       20.5189333886       13.0218670524
  H        13.0162221943       16.3396113209        9.5979547051
  H        16.1050516375       19.4100743672       18.8060784058
  H        13.1621271164       15.8652729753       22.8883970391
  H        12.3471647388       11.5474524796       18.3745752444
  H        15.0775678266        8.5588434534       16.3778327304
  H         8.1313908620       11.1950198112       12.5238232606
  H        11.2781114928       15.2649940588       10.8744421573
  H        16.2030128135       10.1772582861       12.2266535604
  H        19.7470982232        9.8206050811       18.6093848623
  H        15.4708887687       13.8969651396       21.3127303027
  H        12.1154095454       10.7071817566       11.1378014334
  H        16.8276524380       15.6676326792        8.0388527619
  H        18.9088980808       19.1603807022       12.6903822864
