115
Energy =  -1157.3201590065
 Au        14.8992578173       17.8498256739       14.6321546206
 Au        17.9338481710       19.0770074322       15.5821572903
 Au        19.7584481989       16.1193638298       16.4155762481
 Au        17.3338238262       13.7329630570       16.1255176983
 Au        13.4517628315       16.5304221829       16.9168610328
 Au        11.9926990365       19.0930690199       15.1996158010
 Au        13.3613741971       18.6925920274       11.9088379582
 Au        15.2340119478       15.8544618769       12.2555057913
 Au        16.5168233499       16.5324554805       16.9145495067
 Au        14.7364934643       16.6291940207       19.8416093000
 Au        11.8122449888       14.7216267149       18.9682929423
 Au        12.4674977133       13.8709741178       15.7545161804
 Hg        15.0506497645       12.1954004784       15.3057911472
 Au        11.9841779227       10.8206443389       14.3473350565
 Au        10.1986076013       13.8505471899       13.5965761836
 Au        12.6223340933       16.3009374804       13.8978736109
 Au        16.6426708475       13.5462089151       13.1041665118
 Au        18.0454237166       10.8447488277       14.8378432204
 Au        16.6481669381       11.2436960426       18.1599938017
 Au        14.7986410194       14.1897466155       17.7746283846
 Au        13.3783976428       13.5588811384       13.0659189566
 Au        15.3200948044       13.4205230094       10.1821206707
 Au        18.2674300352       15.2982553887       11.0541762161
 Au        17.4805052005       16.2323722735       14.2143474346
 Au        14.9915014527       15.0085979220       14.9944171929
  S        15.8024734959       20.0173703962       15.2486231925
  S        20.1679636608       18.3667466879       15.8360815842
  S        19.6093120239       13.8425349303       17.0040312032
  S        11.8822476749       18.3228085860       17.4208108396
  S        11.9722550218       20.1747240333       13.1069584262
  S        14.8831020469       17.5308553834       10.5323196245
  S        16.9371701514       17.2175299582       19.2220950410
  S        12.5370864719       16.2618159306       20.6047379219
  S        10.8215161961       13.2234847345       17.4448453117
  C        15.9578281065       21.0391541314       13.7314631418
  H        14.9474943661       21.3539337245       13.4432900175
  H        16.4111277051       20.4735227812       12.9127767947
  C        20.7725404991       19.1499016145       17.3835167568
  H        20.7807778217       20.2357715756       17.2360013075
  H        21.7941053396       18.7918172361       17.5575732939
  C        19.4063779014       13.9097399414       18.8271956401
  H        19.0297809683       12.9323801057       19.1575107513
  H        18.7036025752       14.6975436002       19.1178647358
  C        12.8443954337       19.6019139844       18.3217072172
  H        13.7664727762       19.8527142737       17.7877895691
  H        13.0821755017       19.2000865067       19.3148822768
  C        10.2739246446       19.8963165917       12.4716251333
  H         9.9729536114       18.8494496413       12.5905267836
  H        10.2509680616       20.1867511129       11.4154934762
  C        13.8559844070       16.7724258260        9.2144138112
  H        14.4729536496       16.0236104864        8.7016937895
  H        13.5564484231       17.5597153171        8.5131121589
  C        16.9309531418       19.0527692641       19.2757946293
  H        17.8272713920       19.4065779289       18.7513978554
  H        16.9567146964       19.3692601047       20.3248253817
  C        12.6784526731       15.2775626370       22.1483868742
  H        13.2146139745       14.3390483416       21.9807992129
  H        11.6609521047       15.0610593969       22.4948302109
  C        11.3719059181       11.5786606511       18.0459963449
  H        11.1834583991       10.8549577926       17.2417485386
  H        10.7741202551       11.3211707866       18.9280322028
  S        14.1301982715        9.8797802666       14.6168754826
  S         9.7725065352       11.5991137883       14.1629639849
  S        10.3339798364       16.1350940856       13.0323825582
  S        18.1461952364       11.6731407981       12.6369012170
  S        18.0329364477        9.7731965898       16.9391713535
  S        15.1077843011       12.4564969067       19.4686267702
  S        13.1005039216       12.8520134492       10.7479102445
  S        17.5191279980       13.7793541049        9.4111660229
  S        19.2385447632       16.7875180825       12.5962599379
  C        14.0399939383        8.8423369926       16.1269112911
  H        13.3979941209        7.9798720830       15.9149934194
  H        13.6422106803        9.4038548230       16.9774220168
  C         9.1092257927       10.8432826130       12.6254362849
  H         9.0590810148        9.7583813926       12.7719197577
  H         9.7331899497       11.0770886052       11.7581723271
  C        10.5227303953       16.0952808925       11.2067628532
  H        10.9081613037       17.0733637806       10.8889113708
  H         9.5359190554       15.9194062516       10.7629810099
  C        17.1829944895       10.4282244133       11.6911662547
  H        17.7996954577        9.5278556544       11.5876599527
  H        16.9735213688       10.8552241257       10.7020526817
  C        19.7278710780       10.0606250404       17.5824864997
  H        20.0203812563       11.1109918972       17.4742142321
  H        20.4097746039        9.4266544159       17.0038449469
  C        16.0968355573       13.1810988085       20.8335381283
  H        17.0114643386       13.6513988513       20.4635091481
  H        16.3412890926       12.3842446522       21.5453288057
  C        13.0797849834       11.0174357422       10.6987327317
  H        13.9340540905       10.5921646196       11.2331757519
  H        13.0964154199       10.6994725724        9.6499359076
  C        17.3565215198       14.7904081183        7.8867006696
  H        16.8231887839       14.1962400297        7.1361924608
  H        18.3690644790       15.0149922554        7.5311565974
  C        18.7597795076       18.4337292868       11.9385674965
  H        17.7037297497       18.4577306600       11.6510735240
  H        19.3886633892       18.6513688598       11.0675448583
  H        16.5693553044       21.9173945893       13.9681071087
  H        20.1425663249       18.8911235753       18.2394086644
  H        20.3877543945       14.1038432345       19.2754947121
  H        12.2167811554       20.4954253357       18.4188322415
  H         9.5993660100       20.5399698630       13.0482826269
  H        12.9722790795       16.2785854029        9.6266231069
  H        16.0462635768       19.4632364203       18.7809408064
  H        13.2030563928       15.8844111999       22.8949338120
  H        12.4350180001       11.5818418117       18.3077442857
  H        15.0574524557        8.5016460358       16.3541071710
  H         8.1002210527       11.2435078983       12.4715067527
  H        11.2145333542       15.3051552978       10.8968416852
  H        16.2448758954       10.1785865445       12.1966729040
  H        19.7481596645        9.7613144743       18.6362115665
  H        15.4781485986       13.9460261097       21.3196338001
  H        12.1537831122       10.6804700925       11.1811365835
  H        16.8209066927       15.7244908548        8.0796937017
  H        18.9491693899       19.1701351627       12.7308100771
