129
Energy =  -1589.6677152768
 Au        13.2638055345       14.3244276342       16.8197532576
 Au        18.0440093851       13.7215029633       15.3781033443
 Au        17.7963809795       12.9499567745       18.1362625879
 Au        16.3033419011       12.4580105459       13.4622865623
 Au        14.8606453869       13.3527992535       19.0239556859
 Au        13.4986812979       15.9117013110       19.1380033750
 Au        17.9040611510       14.7527513397       12.7408166388
 Au        19.2081498774       15.3510844096       17.3984290649
 Au        13.3374761053       12.8529074190       14.3395400938
 Au        15.5392754924       18.1001202969       15.5973448028
 Au        13.0125640908       17.2719844506       16.5337699676
 Au        15.5496542701       12.7442297784       16.2633708783
 Au        13.5676842567       17.7152480045       13.6352603585
 Au        17.9666660780       16.5542476023       15.0276015535
 Au        15.0283795632       18.3218291611       18.3657458083
 Au        16.2613517961       17.3918201142       12.7944942245
 Au        13.1183311318       11.5640689836       17.1654549878
 Au        11.9636477563       15.3770716246       14.5405527784
 Au        17.7648395449       11.0032599050       15.7592379161
 Au        17.8272812738       18.0846993518       17.5046726560
 Au        19.0957283371       12.2173492993       13.1769665776
 Au        10.9180852541       15.5719988634       17.5314307714
 Au        20.3510914905       14.9964986525       14.5850947291
 Au        20.3085933311       12.7956326797       16.8572523064
 Au        21.0901404293       18.0122853072       13.7740516880
 Au        12.0524903992       13.5231314617       19.3852994231
 Au        17.9214139182       19.4284045860       14.8808124633
 Au        15.3064337228        8.9669785890       16.8338881572
 Au        16.3869333112       20.4810066457       17.2140560995
 Au        13.5404733476       20.7744225191       17.3869273659
 Au        15.2720464918       19.9203777934       13.3469918031
 Au        10.8560818018       13.0775618991       15.6854574470
 Au        10.3693130476       18.7585212543       17.0463029542
 Au         9.5790235192       11.8994985491       18.3469709684
 Au        21.6968145300       11.1254089965       14.5868081920
 Au        16.8771869065       22.3619380667       14.7935321469
 Ag        16.0464582976       15.5959059603       17.2810467671
 Ag        15.2187669656       15.2304029581       14.5870495787
  S        17.2688373720       16.2209109567       10.9235478572
  S        19.5735914351       17.1781474667       18.9368450463
  S        13.0318113491        9.1851173998       17.4154553108
  S        14.3518551434       17.6372412474       20.6155207932
  S        16.7610151224       12.5569995054       20.2931079157
  S         8.9902228929       16.9630403665       17.7537775546
  S        19.8558397988       19.9947091761       13.5430654514
  S        14.2507002348       11.7572548754       12.3824352534
  S        11.3169349136       20.8445229186       16.5404728940
  S        22.4077560233       16.0609202063       13.9526599081
  S        20.8722841699       10.7812677693       12.4067658316
  S        10.4078129524       12.1691909134       20.5345439120
  S        11.4661281680       16.8972828731       12.7078310965
  S        17.5412250624        8.6466814546       16.1473090681
  S        22.3799057397       11.5633387812       16.7992203932
  S        17.8943630432       22.4435008782       16.9196355167
  S        15.6606776912       22.2289713886       12.7815572283
  S         8.8658756719       11.7752735742       16.1090146103
  C        20.1580719951        9.0862183731       12.4320415151
  C        20.7817724317       21.2399777115       14.5249073608
  C         9.2794402928       10.0703290393       15.5594353723
  C        17.0457354364       23.8267567709       17.7804863399
  C        23.6904420448       12.8447703129       16.6475795956
  C        12.9833807607        8.9177528916       19.2330511613
  C        22.7380270429       15.5357339246       12.2222678945
  C        11.5295168278       20.8680533866       14.7170814564
  C        18.4648990058        8.3603606504       17.7116812973
  C        12.9094193709       18.7119649140       20.9887552143
  C         9.2629870828       13.3673671979       21.3317596612
  C        14.1257845339        9.9675283714       12.7797289463
  C        21.0998633110       17.9923714340       18.3160430289
  C        11.9106747705       15.9975774951       11.1697856762
  C        18.7889719234       17.1739938320       10.5345512443
  C         7.9688431352       16.5627024776       16.2785309355
  C        16.9156147235       22.1468999576       11.4406782079
  C        17.2867185731       13.9501420698       21.3683829736
  H         9.2374558906       10.0562090312       14.4643158528
  H         8.5208777839        9.3925425026       15.9678619052
  H        10.2744901088        9.7676431772       15.9004291808
  H         9.0410361420       14.2100354334       20.6707030192
  H         8.3386872239       12.8369224113       21.5878234376
  H         9.7486673693       13.7289856041       22.2454197442
  H        13.7383255901        9.5207997640       19.7455220940
  H        11.9827628857        9.2009621027       19.5808045000
  H        13.1573167823        7.8523852381       19.4228170157
  H        18.2328156508        9.1244590355       18.4592981959
  H        18.1975715401        7.3668867584       18.0891522261
  H        19.5338389027        8.3916886335       17.4709842852
  H        21.8237381856       15.5376967418       11.6222721966
  H        23.4752571169       16.2218230420       11.7899813794
  H        23.1506254048       14.5206562758       12.2603545559
  H        20.1711872567       22.1506339495       14.5605522509
  H        20.9713197113       20.8867231524       15.5422650223
  H        21.7294824715       21.4392061709       14.0119938774
  H        17.3067582106       23.1592141997       11.2862982375
  H        16.4100610604       21.8031216955       10.5311866062
  H        17.7324294348       21.4651230659       11.6981656861
  H        11.9851012027       21.8287231259       14.4518762622
  H        10.5376547017       20.7868073807       14.2593947846
  H        12.1708898943       20.0460062466       14.3753096014
  H        17.4190717538       24.7745035365       17.3761341787
  H        15.9602485451       23.7656632331       17.6564919776
  H        17.2992416452       23.7538041638       18.8448703437
  H        13.2881996524       19.7005080605       21.2738213272
  H        12.3627328822       18.2655511885       21.8277142296
  H        12.2463979143       18.8091301239       20.1231447005
  H         7.2316882626       17.3629278987       16.1472372230
  H         8.5860529172       16.4651239801       15.3800674403
  H         7.4578051658       15.6140782199       16.4799359425
  H        18.4958232712       18.0962091433       10.0198569866
  H        19.3578064704       17.4184966746       11.4399596001
  H        19.4040273152       16.5597944566        9.8660467242
  H        19.5413093151        8.9762854404       11.5326386949
  H        20.9863915303        8.3690911633       12.4030437638
  H        19.5470444411        8.9188984220       13.3242454164
  H        23.3944030929       13.6452948550       15.9623950726
  H        24.6023103397       12.3561585071       16.2857096615
  H        23.8638014547       13.2572401536       17.6482227869
  H        21.1208346648       18.0250105131       17.2211465000
  H        21.9614460561       17.4244340291       18.6859509530
  H        21.1269541269       19.0112734724       18.7197674735
  H        17.3015861841       14.8989215522       20.8242554937
  H        16.5834913025       14.0144524518       22.2066587882
  H        18.2927298237       13.7230503704       21.7401754831
  H        11.0695315091       15.3454133035       10.9066099425
  H        12.0707650204       16.7378317682       10.3773297721
  H        12.8142437311       15.3957477730       11.3026807834
  H        13.0878398776        9.6557673917       12.6158534935
  H        14.7875478999        9.4246882050       12.0948725930
  H        14.4167203584        9.7614409908       13.8161826583
  H        15.0017075532       21.2956047667       18.1086703086
