115
Energy =  -1243.4376832627
 Au        14.8074812665       17.9657838750       14.6798260424
 Au        17.8369450795       19.3420622818       15.6422605414
 Au        19.6255679212       16.3647404987       16.3814266436
 Au        17.3138600162       13.6595897100       16.1367381428
 Au        13.6961297629       16.5996755765       17.0401027513
 Au        12.0711957944       19.0518352904       15.0844840341
 Au        13.4932058456       18.7292306224       11.7854526161
 Au        15.3176612310       15.7826492555       12.1588295562
 Au        16.5670456597       16.5820410023       16.9337923890
 Au        14.9323140716       16.6003252840       19.9455016152
 Au        11.9521631998       14.8878834436       18.9961992759
 Au        12.8721049193       13.2247291759       16.0166464515
 Pd        15.2474304547       12.0723098863       15.3595761250
 Au        12.1494379971       10.7795994266       14.4445874078
 Au        10.3735014157       13.7050897519       13.5922362125
 Au        12.8901370555       16.2533200349       13.5601816322
 Au        16.4308623072       13.3441916195       13.0754185272
 Au        17.8715597439       10.8280589739       14.8185616751
 Au        16.5460189129       11.2535733344       18.1126674634
 Au        14.9540226187       14.1881881616       17.7965926962
 Au        13.5598041210       13.2667720597       13.2258253249
 Au        15.2158254244       13.3883800178       10.1730770129
 Au        18.1486734897       15.1733937625       11.1361073867
 Au        17.2509868882       16.7677249207       14.1153934436
 Au        15.0591610534       15.0197586603       15.0003224062
  S        15.6627990360       20.1908164965       15.3866725896
  S        20.0691791160       18.6330413528       15.8772191346
  S        19.5997165694       14.0582776012       16.8157271202
  S        11.8171581795       18.1237235233       17.2260167269
  S        12.1001732007       20.1907633421       13.0126366203
  S        14.9482815634       17.4878830589       10.4007591850
  S        17.0764928548       17.2963049325       19.2443295600
  S        12.8012134164       16.1145903586       20.8283175031
  S        10.8613952425       13.7237006253       17.2733516904
  C        15.7429501694       21.2884554955       13.9176473210
  H        14.7198541964       21.6157314377       13.6961791991
  H        16.1522848792       20.7617562335       13.0509930575
  C        20.6944286367       19.3578868342       17.4437819958
  H        20.7139367199       20.4478721381       17.3328034642
  H        21.7128896014       18.9823554047       17.5980980867
  C        19.5458966738       13.9926521018       18.6502339768
  H        19.2209702919       12.9861957253       18.9428978218
  H        18.8543724457       14.7406622691       19.0509981018
  C        12.4311159986       19.4516251466       18.3368389767
  H        13.3861114410       19.8537625499       17.9846048553
  H        12.5523392596       19.0183764121       19.3371418982
  C        10.4108607773       19.9021096379       12.3529911043
  H        10.1271590292       18.8479713483       12.4378431464
  H        10.3952022520       20.2208736969       11.3048701832
  C        13.8274730898       16.7580867005        9.1426220365
  H        14.3824984532       15.9747044636        8.6114804291
  H        13.5282232924       17.5472242016        8.4431651096
  C        16.9505854975       19.1278489227       19.2876342146
  H        17.7958409120       19.5388119431       18.7212542024
  H        16.9996499535       19.4546502086       20.3326736022
  C        13.0653130760       14.8482072880       22.1310823070
  H        13.5429681556       13.9517360123       21.7234553591
  H        12.0809538392       14.5866716792       22.5370126252
  C        10.4133434112       12.1152064929       18.0418147661
  H        10.0394219442       11.4620350393       17.2440623338
  H         9.6198423164       12.2988332086       18.7753162122
  S        14.3141403459        9.9555357810       14.7653610622
  S         9.9072292547       11.4799097696       14.2125369235
  S        10.5560755673       15.9790446467       13.0404220245
  S        18.1184444736       11.6517174734       12.6341183563
  S        17.8877528996        9.7341801235       16.9086787062
  S        15.1812995303       12.5136804797       19.5695366982
  S        13.0365750404       12.8119121633       10.8589582588
  S        17.3910704189       13.8037896148        9.3602322390
  S        19.2284800680       16.4810739701       12.7638941789
  C        14.1645360615        8.8810953302       16.2504972114
  H        13.5396709156        8.0161732791       16.0018637896
  H        13.7316675023        9.4311009449       17.0911157751
  C         9.2328789347       10.6715134909       12.7088516503
  H         9.2045763190        9.5910163281       12.8894869253
  H         9.8412072029       10.8878793237       11.8262668440
  C        10.5150705579       15.9519943708       11.2038562488
  H        10.8589972053       16.9296503090       10.8435094204
  H         9.4768390064       15.7847959933       10.8940232820
  C        17.2470273451       10.3857618694       11.6270816890
  H        17.9005762321        9.5098875041       11.5424654370
  H        17.0634844838       10.8156013374       10.6344884300
  C        19.5987099925       10.0308203767       17.5100745162
  H        19.8886879863       11.0786653214       17.3818881402
  H        20.2695106092        9.3901229714       16.9260631598
  C        16.3679303848       13.1749391465       20.8071466438
  H        17.2863897505       13.5289811527       20.3334126240
  H        16.5985695087       12.3792652421       21.5250126492
  C        12.9777279555       10.9869040830       10.6673023734
  H        13.8657742555       10.5145373302       11.0966048405
  H        12.9006797312       10.7488744489        9.6002596136
  C        17.1999154799       14.9626363484        7.9493818146
  H        16.6209908708       14.4597855360        7.1666080052
  H        18.2042591921       15.1948257994        7.5756986566
  C        19.4499551416       18.1116941951       11.9464122628
  H        18.5198666676       18.4573305238       11.4861928614
  H        20.2286250589       18.0027233146       11.1826222584
  H        16.3655023678       22.1563258860       14.1623839779
  H        20.0674302926       19.0766165725       18.2947772592
  H        20.5574697782       14.1829296241       19.0275342327
  H        11.6781396945       20.2476734487       18.3630064669
  H         9.7180895664       20.5176650936       12.9384573664
  H        12.9448255891       16.3090219606        9.6046789157
  H        16.0200978829       19.4733629895       18.8284559809
  H        13.6856701802       15.2880955172       22.9198990735
  H        11.2745828936       11.6513082934       18.5306988524
  H        15.1737460297        8.5455060832       16.5180268154
  H         8.2150289593       11.0492153695       12.5557029069
  H        11.1531299520       15.1565819234       10.8048052853
  H        16.2987892697       10.0988458912       12.0931316097
  H        19.6431707836        9.7477241153       18.5675553451
  H        15.8863134009       14.0183015976       21.3185451402
  H        12.0916551947       10.6236347071       11.2021287601
  H        16.7014352318       15.8868566791        8.2575636141
  H        19.7764099141       18.8236886859       12.7140782012
