115
Energy =  -1243.4260891653
 Au        14.9257778289       17.8814363463       14.5478105010
 Au        17.9046902835       19.2278137858       15.5877147402
 Au        19.6336387191       16.2842026362       16.5120091294
 Au        17.3093303018       13.4453610213       16.2368629615
 Au        13.7858797343       16.6213891067       17.0225159763
 Au        12.1494644847       19.0191730285       15.0051960057
 Au        13.5380692024       18.7622100699       11.7249605684
 Au        15.3669637922       15.8738740638       12.1286000683
 Au        16.6260631540       16.4553910769       16.9582522111
 Au        14.8610210366       16.6687366076       19.9347803134
 Au        11.9552349630       14.7981426683       19.0321588263
 Au        12.8224438071       13.2974037213       15.8907085280
 Au        15.2202438038       11.9407307704       15.2046505602
 Au        12.0058277655       10.7415261676       14.4402079062
 Au        10.3407783711       13.7767024032       13.6858368820
 Au        12.9018148810       16.2506976139       13.4289634813
 Au        16.4708230163       13.4551290016       13.0211646112
 Pd        17.7938911937       10.9532556607       14.8567960753
 Au        16.4389646372       11.1876468461       18.1152705191
 Au        14.9013178700       14.1688884388       17.8058249529
 Au        13.5038411777       13.3536890201       13.1517576375
 Au        15.2297950593       13.4451330917       10.1258181197
 Au        18.1641794119       15.2469057443       11.0709396741
 Au        17.3707055853       16.4908396346       14.1961351484
 Au        15.0422571816       14.9710902940       15.0028636993
  S        15.7446988227       20.0949939308       15.2884448754
  S        20.1268042191       18.5009593235       15.8523045217
  S        19.5258584352       14.0171698848       17.0824277509
  S        11.8791105672       18.0824878110       17.1387258088
  S        12.1707748588       20.2239735997       12.9731314141
  S        14.9642689922       17.5201533077       10.3169823316
  S        17.0494377959       17.2424958542       19.2783070000
  S        12.6687946972       16.2993194001       20.7106287748
  S        10.9671795407       13.3535421940       17.4662977178
  C        15.8730475453       21.2015586344       13.8286690597
  H        14.8578584871       21.5293021171       13.5741629318
  H        16.3137281561       20.6825394477       12.9730694542
  C        20.7764982904       19.3229264641       17.3600615367
  H        20.8083311556       20.4024663339       17.1748122815
  H        21.7919912230       18.9455822908       17.5290011006
  C        19.3799452940       14.0276461730       18.9113618476
  H        19.0829352421       13.0181954060       19.2221863706
  H        18.6369174366       14.7580737362       19.2476984192
  C        12.4237068782       19.4431140214       18.2484197702
  H        13.3784235357       19.8645230492       17.9195792975
  H        12.5222774972       19.0290670998       19.2591176529
  C        10.4779520984       19.9743784796       12.3074457533
  H        10.1793272435       18.9229193016       12.3700084804
  H        10.4668520625       20.3156215900       11.2663687720
  C        13.7979899796       16.7308647965        9.1377983842
  H        14.3320021523       15.9211215950        8.6244101538
  H        13.4724083817       17.4871065793        8.4143565876
  C        17.0046677889       19.0777204286       19.2432654086
  H        17.8955478513       19.4267225955       18.7065072526
  H        17.0167075243       19.4460769910       20.2754045720
  C        12.8143502528       15.2723782509       22.2256679057
  H        13.3381269013       14.3333148101       22.0256801543
  H        11.7976797159       15.0579327673       22.5756495040
  C        11.0691929947       11.7103496533       18.2825401638
  H        10.8081105373       10.9551937317       17.5306862556
  H        10.3389723428       11.6910793899       19.0996822745
  S        14.1498029520        9.8029776363       14.5114315089
  S         9.8051734057       11.5804430637       14.3595423130
  S        10.5299473277       16.0336709416       13.0503135177
  S        18.1710994491       11.7884966712       12.7466694263
  S        17.7875861179        9.7575987664       16.8366564830
  S        14.9816616592       12.4255522343       19.5088202385
  S        13.0534779692       12.8361846463       10.7986853795
  S        17.3861504116       13.9026185454        9.2856296791
  S        19.2770753387       16.5253635934       12.7010148597
  C        14.1708435730        8.6879492948       15.9681998167
  H        13.5326969490        7.8229680875       15.7555743898
  H        13.8233237887        9.2021388960       16.8687682538
  C         9.0287767322       10.8022814432       12.8879254508
  H         8.9259452639        9.7296510613       13.0881875228
  H         9.6273502669       10.9578550500       11.9861057021
  C        10.4005667027       15.9391473882       11.2190882367
  H        10.7193326981       16.9044237611       10.8069084449
  H         9.3497417044       15.7561726547       10.9654048209
  C        17.4082919404       10.5384824694       11.6324835082
  H        18.1072400798        9.6970408738       11.5528812191
  H        17.2497141075       10.9844483885       10.6428873600
  C        19.4851681545        9.9868378040       17.5065704876
  H        19.7878494347       11.0385111617       17.4561642628
  H        20.1635204483        9.3843176722       16.8906822075
  C        16.0478575338       13.0318272771       20.8752090763
  H        17.0273798614       13.3487001809       20.5089199877
  H        16.1652489136       12.2217060919       21.6044606158
  C        13.0179304802       11.0070508947       10.6494780769
  H        13.8890320793       10.5511311187       11.1290859685
  H        12.9890071125       10.7423807723        9.5864033261
  C        17.1623679516       15.0748040598        7.8912355336
  H        16.5743893666       14.5769299519        7.1120426433
  H        18.1589030991       15.3183899015        7.5040708099
  C        19.2633162596       18.2237722982       11.9997864438
  H        18.2674036059       18.4986428126       11.6404431888
  H        19.9811951177       18.2527573847       11.1718782263
  H        16.4854922658       22.0685312052       14.1012988323
  H        20.1562836441       19.1096478627       18.2353360253
  H        20.3606809092       14.2734147727       19.3347751538
  H        11.6490527822       20.2184475360       18.2351134016
  H         9.7940900752       20.5868851354       12.9064098242
  H        12.9339130035       16.3067633496        9.6556182990
  H        16.1155895723       19.4442093271       18.7223898404
  H        13.3526716675       15.8529859523       22.9830792519
  H        12.0731439928       11.5188095092       18.6743178301
  H        15.2083684254        8.3625782159       16.1130072942
  H         8.0375706556       11.2519072933       12.7568070988
  H        11.0242094487       15.1338484217       10.8165721858
  H        16.4568547108       10.1834938160       12.0430490065
  H        19.5145232338        9.6290998766       18.5418477532
  H        15.5477783407       13.8907467267       21.3401208511
  H        12.1095625971       10.6529819240       11.1526759995
  H        16.6630113716       15.9922149402        8.2184306587
  H        19.5781271904       18.9119896414       12.7937351552
