115
Energy =  -1243.4456859729
 Au        14.9396999568       17.7821915032       14.5111848731
 Au        17.9960019901       18.9869414914       15.5750983874
 Au        19.8612278022       16.0830569551       16.3728365671
 Au        17.3628470349       13.6976622678       16.1342917891
 Au        13.2148726771       16.3161539629       16.7840426142
 Au        12.0111025749       19.0767425892       15.0641689467
 Au        13.3955086636       18.7185000042       11.7539657056
 Au        15.2036954098       15.9200977208       12.3069635735
 Au        16.6292044749       16.3544945049       16.8871247254
 Au        14.6308518177       16.5094331528       19.7561663885
 Au        11.7027808874       14.6312666561       18.9499062831
 Au        12.5083880657       13.7398562833       15.7784684474
 Au        15.0594860719       12.2176629346       15.4894935126
 Au        12.0033182612       11.0129310751       14.4250785714
 Au        10.1381984701       13.9169098563       13.6268711366
 Au        12.6363800759       16.3023452719       13.8660025382
 Au        16.7839797810       13.6835895209       13.2162752871
 Au        17.9879974956       10.9231734646       14.9362557598
 Au        16.6038106910       11.2815984370       18.2465051420
 Au        14.7954841682       14.0798749383       17.6934820014
 Au        13.3700490103       13.6454965120       13.1130871562
 Au        15.3683117487       13.4901368930       10.2440873149
 Au        18.2962230682       15.3683756543       11.0501451938
 Au        17.4907780932       16.2599120324       14.2217628808
 Pd        14.9995343529       14.9999194964       15.0002206689
  S        15.8242137818       19.8643283814       15.3766605780
  S        20.2555119926       18.3302896094       15.7687000283
  S        19.6823530143       13.8142484215       16.9810619483
  S        11.9144952222       18.2924850948       17.2823779788
  S        12.0197658297       20.1876616847       12.9833101882
  S        14.8910134200       17.4804019244       10.4121619116
  S        16.8279853820       17.1041236368       19.1610366305
  S        12.4580649911       16.1417715093       20.5934902054
  S        10.7446907118       13.1326503800       17.4162250995
  C        15.8890433185       21.0219067458       13.9533693648
  H        14.8606771237       21.3336174570       13.7342513840
  H        16.3224135900       20.5431048604       13.0706647402
  C        20.8615087055       19.1350086167       17.3049768197
  H        20.8739306674       20.2184567787       17.1405467452
  H        21.8815887482       18.7761588062       17.4859276426
  C        19.5157368393       13.8965381653       18.8073687289
  H        19.1146378001       12.9335910020       19.1508022749
  H        18.8407161341       14.7050492465       19.1065943162
  C        12.9917330739       19.4807501837       18.1719690183
  H        13.8833651118       19.7194260566       17.5837293548
  H        13.2763765432       19.0243636934       19.1291822757
  C        10.3213425251       19.9534480681       12.3304997945
  H         9.9964310756       18.9124371345       12.4347753050
  H        10.3154325560       20.2555506612       11.2774027125
  C        13.8201007128       16.6737741453        9.1591746350
  H        14.4169507844       15.9010789586        8.6576581443
  H        13.5006434904       17.4315896243        8.4346322274
  C        16.8460366261       18.9385882067       19.1946819889
  H        17.7506053078       19.2729991904       18.6717732167
  H        16.8728435030       19.2588618459       20.2426860604
  C        12.6751311949       15.1080536209       22.0956929635
  H        13.2078780210       14.1796864210       21.8689924363
  H        11.6752310281       14.8727783176       22.4790251866
  C        11.2688632835       11.4953521736       18.0617005466
  H        11.0629719005       10.7543559917       17.2778361282
  H        10.6749697013       11.2695171210       18.9546746567
  S        14.1750014667       10.1354379564       14.6241899300
  S         9.7438772798       11.6696102352       14.2307253560
  S        10.3170375676       16.1857697878       13.0188330387
  S        18.0844648209       11.7073068686       12.7180035050
  S        17.9794080828        9.8123210862       17.0171434169
  S        15.1086436070       12.5198896629       19.5885230636
  S        13.1710769691       12.8958393628       10.8391903916
  S        17.5413252133       13.8571078598        9.4070946990
  S        19.2541087123       16.8672734733       12.5836603869
  C        14.1097398200        8.9781507122       16.0477042734
  H        13.5094977275        8.1088596499       15.7559767504
  H        13.6761015761        9.4571343720       16.9301792075
  C         9.1384626945       10.8650222093       12.6941505569
  H         9.1260999534        9.7815504293       12.8584271320
  H         9.7704110418       11.1073948077       11.8350294040
  C        10.4840860709       16.1036297241       11.1925593828
  H        10.8852743043       17.0666066435       10.8493077845
  H         9.4904618260       15.9368295353       10.7606506381
  C        17.0072927918       10.5188504304       11.8285816710
  H        17.5906972055        9.6076222957       11.6507204518
  H        16.7226179520       10.9750873200       10.8713083941
  C        19.6778752652       10.0465031375       17.6698539495
  H        20.0028325328       11.0874889416       17.5654780737
  H        20.3435225232        9.3940625986       17.0927159126
  C        16.1800682788       13.3267057497       20.8409572482
  H        17.0522761624       13.7989423987       20.3811822813
  H        16.4999169890       12.5689713195       21.5654110102
  C        13.1528629686       11.0613724001       10.8056586412
  H        14.0297770862       10.6419127748       11.3052629157
  H        13.1258121075       10.7410354077        9.7576802450
  C        17.3248648742       14.8897437249        7.9040630964
  H        16.7715702699       14.3044637693        7.1610404189
  H        18.3249162524       15.1246596033        7.5209040497
  C        18.7296465539       18.5044983615       11.9382563518
  H        17.6636230905       18.5125234512       11.6886790154
  H        19.3234750299       18.7304490607       11.0452669449
  H        16.4893681673       21.8911400157       14.2450984111
  H        20.2298139930       18.8928192771       18.1643346045
  H        20.5094649772       14.0633738229       19.2390260557
  H        12.4083896091       20.3919932981       18.3499535494
  H         9.6556324287       20.6058101948       12.9076543861
  H        12.9476454028       16.2015570272        9.6185021075
  H        15.9691959464       19.3580128680       18.6949197020
  H        13.2286492445       15.6928093729       22.8389605661
  H        12.3348769570       11.4871793136       18.3113095954
  H        15.1380368483        8.6664817567       16.2672047367
  H         8.1184082514       11.2237943616       12.5129035217
  H        11.1591827337       15.2951453872       10.8934328167
  H        16.1156831873       10.2801902058       12.4168625219
  H        19.6838241093        9.7444843010       18.7229746910
  H        15.5834036552       14.0994024322       21.3426916195
  H        12.2483834827       10.7270570699       11.3287836734
  H        16.7920931626       15.8183128830        8.1298552683
  H        18.9354612760       19.2455041110       12.7221327988
