115
Energy =  -1236.3517327391
 Au        14.8996989027       17.9014962879       14.5489193349
 Au        17.9284591327       19.2255817252       15.5359931825
 Au        19.6395674036       16.2673175490       16.4951098508
 Au        17.2976807725       13.4144162896       16.2807374999
 Au        13.8444103746       16.6707615791       17.0296413191
 Au        12.1389797357       19.0329773128       15.0455643228
 Au        13.4857559353       18.7569089458       11.7454819318
 Au        15.3124696069       15.8557258921       12.1206409943
 Au        16.6630031793       16.4069845125       16.9526166137
 Au        14.9138495683       16.6727734642       19.9279458503
 Au        12.0047381181       14.8283203655       18.9951897035
 Au        12.8839828127       13.2140043749       15.8912982792
 Au        15.2462625291       11.9160321436       15.1575516103
 Au        11.9820105823       10.7302311058       14.4215715898
 Au        10.3123350511       13.7565981505       13.6908003812
 Au        12.8816606387       16.2509638898       13.5072108617
 Au        16.5061298276       13.4796291767       12.9872985320
 Pt        17.8113312249       10.9324924743       14.9227264014
 Au        16.3826018246       11.1643871116       18.1853624501
 Au        14.9030246343       14.1681022962       17.8270968844
 Au        13.5658016693       13.3727404134       13.1290967824
 Au        15.2181764636       13.4290811410       10.1095210758
 Au        18.1431900653       15.2474397469       11.0323779119
 Au        17.3351219716       16.5332760001       14.1536147039
 Au        15.0585597968       14.9651215783       15.0177741214
  S        15.7750150359       20.1095017969       15.2429168109
  S        20.1414247544       18.4735208628       15.8060627086
  S        19.5251400501       14.0092258339       17.0894312918
  S        11.9097835440       18.1009877089       17.1866557229
  S        12.1254637580       20.2185771996       13.0025400196
  S        14.9115839768       17.5194914718       10.3326315885
  S        17.0961759825       17.2528300492       19.2568366025
  S        12.7250832178       16.2888053922       20.7094084389
  S        10.9930485747       13.4270508274       17.4049882821
  C        15.8941658153       21.1879613374       13.7615758058
  H        14.8781938309       21.5173761765       13.5122820430
  H        16.3217949607       20.6504089532       12.9107583795
  C        20.8028466140       19.3072968451       17.3022583325
  H        20.8464200165       20.3839400781       17.1030455786
  H        21.8143679841       18.9209974412       17.4747453193
  C        19.4121851966       14.0428628019       18.9201127115
  H        19.1195819920       13.0377562542       19.2483524909
  H        18.6776616949       14.7790537059       19.2625208365
  C        12.4500120183       19.4697109239       18.2882345324
  H        13.3938428822       19.9052660515       17.9467149503
  H        12.5686676564       19.0573630007       19.2975245212
  C        10.4236590359       19.9512708200       12.3667785459
  H        10.1330880247       18.8985075203       12.4442392076
  H        10.3930385809       20.2826396321       11.3229079102
  C        13.7563712901       16.7421165262        9.1349073314
  H        14.2969432199       15.9395088101        8.6173273885
  H        13.4356566726       17.5056107784        8.4168981039
  C        17.0342990551       19.0862436337       19.1831500894
  H        17.9128119238       19.4312633389       18.6237191421
  H        17.0598851652       19.4775163005       20.2065722360
  C        12.8748736781       15.2207568542       22.1949517109
  H        13.3860825395       14.2818819687       21.9632389033
  H        11.8592560507       15.0074662006       22.5487299477
  C        10.9605571531       11.7935157147       18.2472590370
  H        10.6690317030       11.0454769587       17.4997200513
  H        10.2090212812       11.8370431404       19.0439489475
  S        14.1265064869        9.8005873114       14.4418243310
  S         9.7781947578       11.5624022539       14.3650422175
  S        10.5219124761       16.0148369898       13.0803207750
  S        18.3209468890       11.8880780051       12.9373988639
  S        17.6809937070        9.7216217537       16.8532908264
  S        14.9789708728       12.4631964106       19.5771802028
  S        13.0446523607       12.8241470185       10.7967575664
  S        17.3666250561       13.8945132712        9.2531015708
  S        19.2412340506       16.5410534235       12.6625484274
  C        14.1724511480        8.6644582483       15.8806358572
  H        13.5251873920        7.8061383387       15.6689391485
  H        13.8464315397        9.1669715388       16.7958659399
  C         8.9903288818       10.7808636291       12.9014867863
  H         8.8869956528        9.7092064668       13.1065129134
  H         9.5834807774       10.9318451427       11.9953364102
  C        10.4283921371       15.9436678026       11.2462138718
  H        10.7583511987       16.9134496484       10.8534538969
  H         9.3822483887       15.7672312876       10.9696205633
  C        17.8207156078       10.6878656480       11.6326446497
  H        18.5260942341        9.8491533375       11.6668337369
  H        17.8793130894       11.1850636355       10.6571170280
  C        19.3622523610        9.8186150510       17.5970133091
  H        19.7209375574       10.8529448413       17.6131817407
  H        20.0296070915        9.2100669561       16.9754732095
  C        16.0933507143       13.0822146663       20.8996132729
  H        17.0722002590       13.3592378086       20.5011236500
  H        16.2054777930       12.2915818914       21.6507330306
  C        13.0117176417       10.9934516861       10.6696063658
  H        13.8847137785       10.5445886279       11.1524649850
  H        12.9796460359       10.7162334600        9.6098641633
  C        17.1254232823       15.0638759169        7.8588527758
  H        16.5392435720       14.5585110534        7.0831350029
  H        18.1177122353       15.3173501255        7.4673451961
  C        19.2406395773       18.2321570725       11.9441463797
  H        18.2508876573       18.5049058693       11.5666859174
  H        19.9710756329       18.2506088501       11.1269327962
  H        16.5148930824       22.0558353066       14.0113533760
  H        20.1816523731       19.1124174399       18.1811693554
  H        20.4012987347       14.2907695131       19.3221825266
  H        11.6640674890       20.2336966327       18.2859504561
  H         9.7456925265       20.5651088516       12.9711515290
  H        12.8885490012       16.3102106186        9.6395947816
  H        16.1335779659       19.4333449378       18.6690572937
  H        13.4262263340       15.7746652768       22.9629045032
  H        11.9382629765       11.5411077737       18.6691762593
  H        15.2114526210        8.3328087223       15.9979557662
  H         7.9990812248       11.2317252586       12.7750489707
  H        11.0573888022       15.1411894228       10.8466601973
  H        16.8050952834       10.3224723881       11.8133173997
  H        19.3226489944        9.4070004962       18.6118603119
  H        15.6289695875       13.9691254589       21.3490893490
  H        12.1056665407       10.6442059189       11.1805679888
  H        16.6177157216       15.9760855228        8.1871952363
  H        19.5450587350       18.9283206332       12.7353846903
