115
Energy =  -1236.3736260864
 Au        14.9326945895       17.7947781399       14.5506109271
 Au        17.9774799999       19.0022218591       15.5692035261
 Au        19.8548015172       16.0809825001       16.3758196291
 Au        17.3791985885       13.7334916749       16.0874162673
 Au        13.2465465952       16.3353312964       16.8086411597
 Au        12.0050053852       19.0620916232       15.0920014093
 Au        13.4032966089       18.7297963340       11.7578563401
 Au        15.1581795593       15.9495054282       12.3239134303
 Au        16.6058376877       16.3763843532       16.8901076331
 Au        14.6439863254       16.5205237084       19.7594938315
 Au        11.7003234932       14.6414758579       18.9543200533
 Au        12.5312822111       13.7421599968       15.8012096142
 Au        15.0666114250       12.2049802966       15.4501015862
 Au        12.0219279069       10.9975071798       14.4310500498
 Au        10.1447304538       13.9188059379       13.6239002873
 Au        12.6202542246       16.2663423822       13.9128235166
 Au        16.7525421823       13.6643309095       13.1916678265
 Au        17.9941681730       10.9376745692       14.9085416842
 Au        16.5959982106       11.2701641117       18.2427172201
 Au        14.8412458648       14.0504090010       17.6765478132
 Au        13.3938938396       13.6234379605       13.1101628855
 Au        15.3550927948       13.4787184717       10.2407478571
 Au        18.2985077574       15.3581573031       11.0456317537
 Au        17.4680986035       16.2575833103       14.1989941804
 Pt        14.9996945774       14.9998887741       15.0002490679
  S        15.8105456241       19.8973914528       15.3590747321
  S        20.2327915372       18.3315048588       15.7749238858
  S        19.6780916172       13.8057706006       16.9673115894
  S        11.9056551515       18.2806035945       17.3145774770
  S        12.0291542772       20.1791443468       13.0125677081
  S        14.8980967825       17.4842862214       10.4176743353
  S        16.8374166247       17.1297254304       19.1541833517
  S        12.4714772680       16.1447968032       20.5975483444
  S        10.7471153668       13.1531900003       17.4044314508
  C        15.8808882330       21.0250896452       13.9124438029
  H        14.8551405920       21.3447203568       13.6926498682
  H        16.3036108590       20.5236138683       13.0371714252
  C        20.8395789554       19.1387295637       17.3093801978
  H        20.8496285330       20.2220406589       17.1439198680
  H        21.8606545307       18.7819404264       17.4888393133
  C        19.4816864082       13.8716674907       18.7911076718
  H        19.0637177935       12.9098124676       19.1178376149
  H        18.8109854348       14.6850544930       19.0864527867
  C        12.9604160007       19.4885705171       18.2050470678
  H        13.8509620214       19.7388061344       17.6200297132
  H        13.2473648958       19.0407897036       19.1654668444
  C        10.3314571722       19.9652468682       12.3513572473
  H         9.9986167487       18.9255523118       12.4417944932
  H        10.3311052050       20.2803113200       11.3020345136
  C        13.8319141791       16.6830400161        9.1569482051
  H        14.4204532316       15.8904858383        8.6768727761
  H        13.5426728072       17.4383338748        8.4172256997
  C        16.8407091679       18.9642078622       19.1863484355
  H        17.7340542311       19.3066480712       18.6495046201
  H        16.8806948717       19.2843994289       20.2340223122
  C        12.6871292175       15.1132540128       22.1013078411
  H        13.2176271979       14.1832460118       21.8764035235
  H        11.6868676793       14.8811301843       22.4856802656
  C        11.2435325096       11.5104890098       18.0583673090
  H        11.0447679492       10.7713020934       17.2710012167
  H        10.6303622588       11.2916597991       18.9400365950
  S        14.1887464091       10.1022426372       14.6419562362
  S         9.7666880949       11.6682369035       14.2245537808
  S        10.3214742150       16.1940677625       13.0326807505
  S        18.0933981661       11.7189919263       12.6858996595
  S        17.9700340368        9.8207060863       16.9880249244
  S        15.1014876968       12.5158923435       19.5830298996
  S        13.1615992926       12.8699395869       10.8462075657
  S        17.5277823784       13.8539493633        9.4030073336
  S        19.2515865361       16.8469379679       12.5951287298
  C        14.1179316826        8.9749641336       16.0888975427
  H        13.5054892769        8.1075295615       15.8175198020
  H        13.6949805659        9.4767076416       16.9639053362
  C         9.1604043572       10.8610622889       12.6898739631
  H         9.1504143211        9.7777367432       12.8552422317
  H         9.7903349649       11.1039943994       11.8294242023
  C        10.5180621479       16.1284152476       11.2088962266
  H        10.9360977415       17.0903033436       10.8823436011
  H         9.5297124780       15.9771643592       10.7594769147
  C        17.0385748069       10.5109360548       11.7956224237
  H        17.6366005075        9.6079309012       11.6245579624
  H        16.7516300774       10.9585969596       10.8351452734
  C        19.6677286107       10.0345533114       17.6492639990
  H        20.0006366356       11.0742180355       17.5587448712
  H        20.3305144595        9.3844016550       17.0662375725
  C        16.1680810114       13.3171726499       20.8433960226
  H        17.0588840948       13.7633026236       20.3935964346
  H        16.4575102524       12.5619089626       21.5830755966
  C        13.1580066612       11.0354499688       10.8142365382
  H        14.0466927507       10.6239359191       11.2994065926
  H        13.1174702671       10.7151519765        9.7666163329
  C        17.3125938781       14.8844149776        7.8984467472
  H        16.7577028043       14.2986667006        7.1569720055
  H        18.3129737638       15.1162816800        7.5142263948
  C        18.7544676019       18.4894640918       11.9412814695
  H        17.6935675087       18.5077497290       11.6714444048
  H        19.3673571911       18.7084753695       11.0594620411
  H        16.4933713711       21.8924717484       14.1838966372
  H        20.2098515766       18.8959309661       18.1700152710
  H        20.4700755851       14.0230121032       19.2404088317
  H        12.3623541889       20.3915304600       18.3762259969
  H         9.6686494432       20.6153018418       12.9344672995
  H        12.9409967151       16.2368430707        9.6064558000
  H        15.9521932194       19.3756361376       18.7007956591
  H        13.2422634121       15.6984601239       22.8430291356
  H        12.3043623737       11.4918599337       18.3284508193
  H        15.1436015348        8.6553504772       16.3090800575
  H         8.1393441029       11.2177673510       12.5101601784
  H        11.1887642404       15.3150452168       10.9135082683
  H        16.1480281307       10.2608146382       12.3806876979
  H        19.6680216282        9.7195849030       18.6986158036
  H        15.5797257407       14.1097826074       21.3236067253
  H        12.2648741759       10.6931952348       11.3515562956
  H        16.7820046267       15.8145746606        8.1224923270
  H        18.9531899740       19.2287257753       12.7285883825
