322
Properties=species:S:1:pos:R:3 i=240 optimized=T E=-4399.7286311073 pbc="F F F" jobid=102_44-Ag-59_8-000001-PBE
Au      16.80217911      17.05328384      15.87172571 
Ag      17.63763840      17.02781040      18.68508615 
Au      18.58617385      14.95703428      16.89078165 
Au      15.81423044      14.96826501      17.67745325 
Ag      19.47401133      17.79677859      16.56760303 
Au      14.98946965      17.80327499      17.96896490 
Ag      17.22400165      19.55255076      17.29223435 
Au      17.73754617      15.02370660      13.94417947 
Ag      16.60543592      15.00336661      20.55200154 
Ag      18.14609383      19.54354188      20.14412658 
Ag      16.26806882      19.57380684      14.44997290 
Au      19.42374474      14.95912542      19.80797576 
Ag      14.95344703      15.03274542      14.73279619 
Au      18.57219303      17.88589773      13.64518157 
Ag      15.84542864      17.85381442      20.87791339 
Ag      20.36931713      17.76252746      19.43301551 
Au      14.00645472      17.81401747      15.08764280 
Au      21.29414971      15.74364358      17.57921323 
Ag      13.08219175      15.76118655      16.93346110 
Ag      13.91099958      15.76465080      19.78726251 
Ag      20.49153718      15.72781714      14.71495937 
Ag      15.38425013      20.36998160      19.43220774 
Ag      19.03033257      20.33579530      15.16553931 
Au      20.00199606      20.34968768      17.97283051 
Au      14.46195854      20.43512932      16.60258473 
Ag      17.56412890      12.76159828      18.72198296 
Au      16.73552439      12.86733332      15.74023820 
Au      15.86327586      17.11992292      12.94148444 
Au      18.50850743      17.07025441      21.55178111 
Ag      19.56728087      12.98463461      15.06944534 
Ag      14.75803708      12.98604056      19.42571470 
Au      13.13151208      18.56501202      20.04465512 
Au      21.33344894      18.50992994      14.49993142 
Ag      20.33960875      12.89849987      17.86745329 
Ag      13.97763022      13.02316416      16.62508045 
Ag      22.13431773      18.56728334      17.24585962 
Au      12.28601684      18.63451247      17.32695224 
Au      17.67382873      22.04326539      18.65938513 
Ag      16.78140062      22.11043589      15.97417097 
Ag      20.37944896      19.24082121      21.97444818 
Ag      14.03895791      19.38950074      12.59539073 
Au      18.66054598      14.36311182      22.52091747 
Ag      15.61403320      14.40334966      11.96795728 
Ag      17.21691700      19.33614748      11.59694173 
Ag      17.30027035      19.27878205      22.95825326 
Ag      18.06893135      16.16253181      11.28236722 
Ag      16.28128658      16.17819104      23.25545690 
Ag      21.32665910      16.29686434      21.74303391 
Ag      13.04095804      16.48470109      12.80314071 
Ag      23.19958408      16.52685556      15.56059364 
Ag      11.23444235      16.54917833      18.99669329 
Au      22.30817136      13.75100115      15.90371777 
Au      12.08274572      13.77044019      18.67522256 
Ag      14.91080731      22.82550736      18.10491556 
Ag      19.56823183      22.79441185      16.48619799 
Ag      17.58043335      12.33560194      12.98218570 
Au      16.59561292      12.32627457      21.47014215 
Au      19.92727917      14.13512082      12.42241413 
Ag      14.37329489      14.20234693      22.10011329 
Ag      21.74417773      21.04633553      15.77989161 
Ag      12.65288423      21.14183221      18.78560110 
Au      13.61239739      17.00403163      22.41048050 
Au      20.76620533      17.02587957      12.11446423 
Ag      22.27493779      19.87197120      19.79584129 
Ag      12.18053162      19.98959027      14.79190101 
Au      19.98410587      21.72071229      20.40626265 
Ag      14.52525856      21.83439651      14.19570299 
Ag      15.65667716      10.80990707      17.42827274 
Au      18.58047282      10.86258393      16.81670713 
Au      22.09714741      14.12367709      19.85275981 
Ag      12.28032937      14.25276553      14.55298843 
Ag      16.97102530      21.77418774      21.46258632 
Au      17.45524259      21.75342465      13.20512866 
Au      19.65907774      12.22660423      20.62071950 
Ag      14.66216259      12.26967191      13.88847682 
Ag      23.13455919      16.87773005      19.36823035 
Ag      11.24578023      16.97584359      15.19167320 
Ag      19.95877904      20.20164991      12.53798508 
Au      14.53988300      20.11314160      22.08746459 
Au      20.62396937      23.17847169      13.60915222 
Ag      14.11636735      22.98085326      21.03371799 
Ag      24.55341863      14.57922841      17.84895407 
Ag       9.89080986      14.67023991      16.78044522 
Au      17.28522680      24.89431620      17.36164107 
Ag      21.55148621      10.87448705      14.84450242 
Ag      12.92511616      10.74982982      19.51917618 
Au      16.04278859       9.72108339      13.62148099 
Ag      17.93087423       9.82747932      20.45142119 
Ag      10.48805628      18.35850994      21.21158612 
Au      24.03845972      18.17259571      13.22341940 
Ag      24.43336379      20.29320974      16.71508529 
Au       9.98494913      20.46654772      17.67666791 
Au      23.66154275      18.40584504      22.04120198 
Au      10.64248768      18.55165535      12.61459831 
S      19.47619660       9.71249675      14.67025108 
S      14.98159168       9.52901650      19.53827378 
Ag      14.70834182      18.70193401      24.72866338 
Au      19.72147559      18.81819843       9.77540492 
Ag      18.19795231      13.24317598      10.10004483 
Ag      16.13424181      13.18641088      24.34099231 
Ag      19.27798644      21.94781165      23.36376036 
Au      15.15661443      22.05386352      11.20047487 
S      18.53907530      23.94027352      12.81095326 
S      16.11508257      24.06495888      21.90917689 
S      24.13083994      12.84719320      19.50365036 
S      10.28730533      12.91999828      15.16088194 
Au      12.57436469      13.57712683      11.65697324 
Ag      21.67384256      13.30427952      22.72161534 
S       8.85845035      16.14078441      18.40394957 
S      25.54613375      16.13849025      16.30348441 
S      11.28227365      17.18872127      23.20210970 
S      23.11446938      16.98719266      11.38406975 
S      22.83958890      22.71133902      14.25838929 
S      11.77213781      22.74031156      20.47700817 
S      22.24993705      19.39898411      23.64529351 
S      12.05651947      19.60420133      11.05081897 
S      18.79091216       8.90535977      18.40781256 
S      15.20504965       8.95468096      15.66338214 
S      15.82392633      13.35707373       9.70741686 
S      18.54044196      13.27410281      24.69593392 
S      18.40795709      20.34208038      24.91928290 
S      15.98749963      20.42842720       9.70732649 
S      24.21622697      21.23013868      18.93161002 
S      10.30160600      21.47586857      15.55030723 
S      14.94281253      25.21129255      17.42701175 
S      19.63656823      25.14420488      17.28675453 
S      16.90156787      10.38032027      11.52421803 
S      17.28748106      10.33863942      22.75518261 
S      16.01796296      16.91483901      25.65195877 
S      18.44499304      17.01574616       8.94957084 
S      22.08180784      15.34377081      23.91981624 
S      12.34502811      15.64180188      10.55354046 
S      23.63685621      12.07169824      14.72639236 
S      10.85731486      11.95130310      19.80290018 
S      13.69878415      13.21561993      24.27527196 
S      20.64028668      13.18218788      10.29668377 
S      21.47182595      11.06406736      21.80252158 
S      12.67742447      11.41609578      12.58144972 
S      20.69375053      23.39712736      22.00728604 
S      13.88601619      23.56331800      12.53047657 
S      25.18322725      17.12745979      20.75063647 
S       9.14846567      17.20895665      13.87444567 
S      13.77280983      20.91239074      24.27093913 
S      20.75345284      20.89235053      10.27105516 
S      25.45818483      19.34395963      14.71889657 
S       9.03358982      19.55416224      19.65840401 
C      18.93454725      14.53040203      25.97125933 
C      15.46112994      14.66291430       8.46916058 
C      23.50840972      22.91568241      18.76872796 
C      11.09632210      23.09962236      15.86040813 
C      20.60188980       8.74618400      18.65676932 
C      13.38312410       8.86556276      15.45103497 
C      10.61866631      15.48235970      23.08014222 
C      23.68080149      15.25986242      11.61945398 
C       8.14597016      15.01819679      19.67271306 
C      26.35278007      15.13355111      14.99507989 
C      22.87769654      21.11432699      23.82250556 
C      11.45585281      21.33530630      10.95657277 
C      14.71600676      26.30132837      18.89134539 
C      19.88710536      26.30209373      15.88054125 
C      23.89954460      15.46705130      24.15403424 
C      10.54201074      15.82106077      10.25141159 
C      19.65990059      15.96877356       8.05705600 
C      14.80729416      15.85649440      26.54113115 
C      19.77724680      24.92319460      21.56130959 
C      14.91590186      25.02978048      12.92758778 
C      21.15719118      11.46581598      10.69195776 
C      13.09463650      11.54134771      23.81858986 
C      24.74372899      11.29291681      15.97113918 
C      19.79071437       7.94850813      15.09314443 
C      14.60547803       7.79658161      19.04882616 
C      26.33638106      18.27318844      19.89756599 
C       8.04391244      18.31595109      14.83523689 
C      18.79261232      24.18059794      11.01067528 
C      15.74147465      24.26404080      23.69684726 
C      23.36964199      24.19283377      15.20500967 
C      11.28069931      24.29178014      19.62372368 
C      17.16655801      21.29007543       8.59630244 
C      20.79569159      10.08527481      23.19846142 
C      13.26442885      10.38974215      11.17587109 
C      11.93946036      20.82503075      24.24271077 
C      22.57176583      20.65190306      10.25873713 
C       9.05010101      13.16995785      13.82564379 
C      18.26638777       9.19832454      11.20043618 
C      15.86350303       9.23911006      23.10409078 
C       8.51408001      21.05070802      20.58205123 
C      25.98662853      20.81466387      13.75660599 
C      17.17904960      21.19177401      25.98758285 
H      16.68414692      20.42281700      26.59416118 
H      16.42433198      21.72957132      25.40693783 
H      17.71063677      21.89069342      26.64304802 
C      25.28167384      13.18495491      20.89108586 
H      26.24345456      12.71666368      20.64916406 
H      24.86745442      12.72860513      21.79877355 
H      25.42567396      14.26052253      21.04045344 
C       9.69148407      11.23787855      18.57356983 
H       8.81172207      11.89079877      18.52105757 
H       9.39121208      10.24448555      18.92573206 
H      10.13763744      11.16747017      17.57676394 
H      26.59435312      15.80445640      14.16125685 
H      25.69531623      14.33174480      14.63964581 
H      27.27772864      14.70433868      15.39680389 
H      26.65450681      17.79575968      18.96318411 
H      27.20173417      18.43191297      20.55132968 
H      25.86227528      19.23558502      19.68132651 
H      26.45333688      20.47178712      12.82630869 
H      26.72931539      21.35337573      14.35760715 
H      25.13996039      21.47400488      13.53373939 
H      24.24660466      23.56955815      18.29222375 
H      23.28498857      23.28451676      19.77676670 
H      22.58006110      22.90528872      18.18432488 
H      23.45020404      25.04484882      14.52092590 
H      24.35540035      23.97330755      15.63330969 
H      22.66573712      24.42322100      16.01157747 
H      20.12943782      25.27263888      20.58401735 
H      20.00612793      25.67314487      22.32815331 
H      18.69536441      24.74812515      21.52594627 
H      20.96693052      26.37835260      15.70498567 
H      19.49106108      27.28531586      16.15712226 
H      19.39817030      25.93995984      14.97061192 
H      17.80186021      24.27263144      10.54864326 
H      19.33605866      23.33580652      10.57270991 
H      19.36059626      25.10624876      10.86142706 
H      15.15358084      27.28108233      18.67107051 
H      15.17728868      25.87384548      19.78839149 
H      13.63701256      26.41128239      19.05327913 
H      14.89961466      25.70877205      12.06750642 
H      15.94860593      24.75119490      13.16324587 
H      14.46589407      25.52387470      13.79692087 
H      10.27442341      24.15095941      19.21079652 
H      11.97203956      24.53602396      18.81021599 
H      11.26319907      25.11040753      20.35208518 
H      16.60817877      21.99225609       7.96743345 
H      17.63497390      20.51916968       7.97185106 
H      17.94563647      21.81845667       9.15269527 
H      22.90864289      20.51505197       9.22544064 
H      22.87340025      19.79090663      10.86433615 
H      23.01721643      21.56182151      10.67844205 
H      23.16329692      14.64400763      10.87353258 
H      23.43922478      14.89109379      12.62248518 
H      24.76360615      15.22912912      11.45409465 
H      20.00981082      16.51467741       7.17394517 
H      19.13988170      15.05420195       7.74395721 
H      20.50905707      15.70007948       8.69243787 
H      21.09302492      10.86343104       9.77828646 
H      20.52873555      11.02730487      11.47336771 
H      22.19660901      11.49506776      11.03951498 
H      18.78245907       9.53196028      10.29248619 
H      17.83414879       8.20612386      11.02920611 
H      18.96656907       9.16448551      12.04267812 
H      13.13966314       8.01600703      14.80289416 
H      12.97822985       9.78680210      15.01673015 
H      12.93554223       8.70741430      16.44069934 
H      12.41235117      10.20045730      10.51347926 
H      13.63982506       9.44569170      11.58913624 
H      14.06933929      10.88442967      10.62215949 
H      15.64581567      14.24562757       7.47263502 
H      16.08430000      15.55168228       8.61787526 
H      14.40357248      14.93704428       8.56613080 
H       9.42266191      12.66880012      12.92413155 
H       8.89382516      14.23469444      13.62059583 
H       8.10323282      12.71474497      14.13815048 
H      10.24761347      15.11399036       9.46804748 
H      10.37425334      16.85018877       9.91089774 
H       9.95751536      15.64153739      11.15815986 
H       7.27596120      18.71438004      14.16321908 
H       8.59527558      19.14003556      15.29954371 
H      10.46085820      21.33487029      10.49820129 
H      12.15980291      21.88864681      10.32261168 
H      11.41141061      21.80655191      11.94347948 
H      11.35586739      23.52726916      14.88417360 
H      12.01018974      22.99248765      16.45800482 
H      10.38374601      23.75358145      16.37436271 
H      20.85714874       7.70927742      15.05196511 
H      19.25054123       7.34135671      14.35587627 
H      19.39021502       7.73989491      16.09439825 
H      25.13277531      10.36319784      15.53999409 
H      24.22221430      11.08153021      16.90905925 
H      25.57364021      11.98149987      16.17277271 
H      24.12369001      16.48209083      24.50456992 
H      24.44729112      15.28241061      23.22579074 
H      24.20162415      14.73728180      24.91370433 
H      19.98171515      14.83124805      25.84636754 
H      18.79701054      14.05271114      26.94879958 
H      18.27861133      15.40533168      25.89109128 
H      15.30879882      14.92099482      26.82017775 
H      13.93663008      15.61973125      25.92234187 
H      14.48632182      16.38332223      27.44677204 
H      12.03376850      11.62762227      23.55581960 
H      13.20150093      10.87217065      24.67995526 
H      13.64184300      11.13414642      22.96247093 
H      16.26004745       8.23428096      23.29271340 
H      15.17253225       9.20761894      22.25408105 
H      15.35108857       9.60316167      24.00137534 
H      20.28158021       9.20395979      22.79737365 
H      20.09312763      10.66911933      23.80248960 
H      21.64588775       9.77242227      23.81669576 
H      15.54588103       7.23583100      19.11563778 
H      14.23683758       7.73657769      18.02033052 
H      22.19178474      21.64273141      24.49695520 
H      22.91828063      21.63975114      22.86355658 
H      23.87699621      21.07635336      24.26992777 
H      11.56486393      21.52974661      23.49126022 
H      11.58476239      21.11979126      25.23786667 
H      11.58497990      19.81390606      24.01846741 
H      15.16337511      25.18594358      23.82976589 
H      16.68679797      24.34522612      24.24666859 
H      15.16260744      23.41486362      24.07932079 
H       7.77348225      21.59092278      19.98118588 
H       9.37320337      21.69889862      20.79734482 
H       7.24880222      14.54322548      19.25937438 
H       7.86445564      15.62574878      20.54151769 
H       8.86186497      14.24851340      19.98322725 
H       9.54951926      15.51408822      23.32001351 
H      11.15028758      14.85797913      23.80865292 
H      10.76427446      15.06752416      22.07640911 
H      21.08706242       8.65135724      17.67743834 
H      20.78613106       7.83802683      19.24331534 
H      21.01160196       9.61132724      19.19042381 
H      13.87133502       7.37003003      19.74023186 
H       8.05047393      20.71966811      21.51894484 
H       7.57925450      17.70784484      15.62071719 
