322
Properties=species:S:1:pos:R:3 i=192 optimized=T E=-4324.120832869 pbc="F F F" jobid=102_44-Ag-40_2-000005-PBE
Au      16.90587807      17.00009522      15.90196331 
Au      17.71685706      16.96074836      18.79152861 
Ag      18.66416285      14.89813549      16.90601290 
Au      15.94093530      14.91827448      17.71202747 
Au      19.55063124      17.73148757      16.66687642 
Au      15.04741238      17.75270389      18.00754527 
Au      17.33704229      19.52059607      17.37813856 
Ag      17.87354107      15.02771624      13.99489466 
Ag      16.68378477      14.94358774      20.60473159 
Au      18.24487108      19.50185999      20.26114402 
Au      16.38387966      19.57635867      14.50924909 
Au      19.48304645      14.91006652      19.90318968 
Au      15.08189331      14.98219835      14.69724156 
Ag      18.68376861      17.88468584      13.69459092 
Ag      15.92505124      17.80018568      20.96855074 
Ag      20.43403888      17.66466341      19.55258496 
Ag      14.16982884      17.80073705      15.14626819 
Au      21.40546903      15.68451166      17.66210662 
Au      13.19058349      15.75685057      16.90067281 
Ag      13.95302440      15.67756247      19.80494194 
Ag      20.59236482      15.72270839      14.77880129 
Au      15.54031922      20.29188282      19.50987436 
Ag      19.15216162      20.32833478      15.23948246 
Ag      20.08084189      20.33694392      18.10701867 
Ag      14.56644302      20.37608064      16.67255563 
Au      17.67248519      12.70341501      18.82002042 
Ag      16.87898548      12.76929806      15.71133301 
Au      16.04729190      17.09255024      12.96416802 
Ag      18.56136819      16.98772125      21.71599020 
Ag      19.69463724      12.94876151      15.07232713 
Ag      14.82895719      12.92092263      19.41789690 
Au      13.19755976      18.44767707      20.09988759 
Au      21.39525651      18.50826493      14.58443425 
Au      20.42009781      12.91019790      17.90165005 
Au      14.12926946      12.99464625      16.61810744 
Au      22.21427112      18.56966689      17.36176974 
Ag      12.38352530      18.61047732      17.32531498 
Ag      17.81033750      22.08244144      18.72599029 
Au      16.88040193      22.08279354      16.05724027 
Au      20.41525920      19.20697076      22.04959364 
Au      14.15883972      19.33181518      12.67662489 
Ag      18.75100018      14.20252643      22.57347680 
Ag      15.73267714      14.41526990      11.99349359 
Au      17.25248152      19.41219706      11.68422922 
Ag      17.26129102      19.24986977      23.06853639 
Ag      18.27047934      16.23225690      11.26179290 
Au      16.32989356      16.04711898      23.25897938 
Au      21.34250272      16.18242845      21.84927395 
Ag      13.23545515      16.36336243      12.79336143 
Au      23.26712270      16.48412576      15.60255231 
Au      11.34481689      16.53104890      19.00348538 
Au      22.39364003      13.70087121      15.95533366 
Ag      12.06801088      13.71917358      18.52822793 
Au      15.00710482      22.77863262      18.29429236 
Au      19.70143645      22.77294573      16.56932872 
Ag      17.75826406      12.39269314      12.92822922 
Au      16.71931526      12.23397393      21.53085732 
Au      20.07969315      14.20258413      12.49333623 
Au      14.42260058      14.05249985      22.03136904 
Au      21.87620324      21.02902604      15.92061639 
Au      12.80526509      21.02966028      18.87695048 
Au      13.68042025      16.90851783      22.48728626 
Au      20.92721006      17.03240734      12.17528079 
Ag      22.32141083      19.83597227      19.95518247 
Ag      12.33092779      20.00163803      14.82096697 
Au      19.98806465      21.72777836      20.54783191 
Au      14.66942869      21.81917399      14.21970221 
Au      15.76985959      10.83835017      17.57213635 
Au      18.69076379      10.82278043      16.89491204 
Au      22.16793393      14.07916470      19.99500064 
Ag      12.37874970      14.15866098      14.59884765 
Ag      17.05347242      21.75932267      21.54683808 
Ag      17.62544590      21.82533335      13.24821172 
Au      19.77973574      12.11149639      20.66033756 
Ag      14.69846932      12.27244810      13.82208751 
Au      23.20934191      16.87388399      19.47122928 
Au      11.41037831      16.96000158      15.11539195 
Au      20.05122476      20.15472030      12.57790469 
Au      14.53997684      20.15364040      22.07866976 
Au      20.56096006      23.24902870      13.62365381 
Au      13.93308072      23.18749831      21.16470121 
Ag      24.61031606      14.60138017      17.88862853 
Au       9.78137602      14.53845496      16.66255480 
Au      17.29483625      24.91647899      17.38507078 
Au      21.56712325      10.71371109      14.78852957 
Ag      12.79411383      10.88397470      19.67111490 
Au      16.20690141       9.78548623      13.77438817 
Au      18.26514071       9.55372107      20.55021652 
Ag      10.51672092      18.19184730      21.28287487 
Ag      24.06635244      18.28898989      13.43025664 
Au      24.55126510      20.38143867      16.97388558 
Ag      10.12456753      20.39687718      17.83805679 
Au      23.72219891      18.37808662      22.22322940 
Ag      10.98204677      18.52407658      12.50411103 
S      19.47552168       9.65934926      14.73551240 
S      14.81996414       9.61486691      19.63346373 
Au      14.83241723      18.69502707      24.90247809 
Ag      19.82991584      18.80023512       9.91312491 
Au      18.26837332      13.34590984      10.03589672 
Au      16.21032301      13.10185476      24.47983444 
Au      19.27451386      22.08644394      23.53578167 
Ag      15.33957183      22.11471762      11.30073229 
S      18.51841986      24.11318144      12.82507651 
S      16.00449544      24.00496756      21.92812639 
S      24.21928568      12.87116379      19.55897330 
S      10.28156535      12.89633100      15.04860408 
Ag      12.72364323      13.48551821      11.69449396 
Ag      21.71161824      13.28250304      22.89506887 
S       9.04275578      16.11541674      18.25733122 
S      25.59831368      16.06903829      16.21319381 
S      11.35223222      17.00122601      23.23736005 
S      23.26473100      17.18358576      11.40374332 
S      22.75044895      22.63896438      14.24119139 
S      11.74202430      22.58791097      20.50878856 
S      22.20375671      19.32118286      23.75426540 
S      12.47761216      19.49808033      10.89347029 
S      19.06961240       8.83224386      18.47698700 
S      15.46045888       8.99491418      15.84606270 
S      15.92931495      13.39270315       9.72790343 
S      18.54645455      13.09855120      24.81721650 
S      18.40554661      20.44956845      24.97660899 
S      16.19253363      20.47529864       9.74572577 
S      24.20977947      21.29797870      19.13800232 
S      10.38478102      21.34564593      15.62174775 
S      14.94226667      25.08206990      17.47805510 
S      19.64178513      25.10873683      17.33626006 
S      16.91857605      10.39568015      11.61616882 
S      17.46927470      10.17343581      22.68449613 
S      16.06861879      16.83346151      25.63336326 
S      18.51579451      17.06678204       8.89582847 
S      22.00735425      15.36438522      24.08299873 
S      12.43852139      15.57593820      10.55834240 
S      23.60332511      11.91251924      14.79324994 
S      10.74130364      12.10031071      19.87637554 
S      13.84020289      13.11594389      24.23297991 
S      20.63612163      13.29683572      10.27465645 
S      21.62207673      11.08051513      21.92531981 
S      12.73457461      11.26802660      12.60492284 
S      20.60988824      23.48998485      22.14305990 
S      13.93314458      23.55922892      12.69218523 
S      25.20492055      17.12687560      20.86868235 
S       9.39081149      17.21158941      13.76491193 
S      13.83873947      20.76896908      24.34177620 
S      20.82222840      20.98109102      10.40530617 
S      25.51868925      19.50002379      14.98538107 
S       9.04573658      19.40377983      19.77717693 
C      18.90466494      14.33189283      26.12568667 
C      15.57354011      14.70013637       8.49134863 
C      23.45224637      22.94981972      18.90033340 
C      11.10749143      23.02022268      15.83495624 
C      20.89460845       8.82181896      18.67779909 
C      13.64390243       8.84954642      15.63561559 
C      10.72193753      15.28933855      23.03925804 
C      23.88335051      15.45959035      11.51811539 
C       8.20880532      15.14916925      19.57294185 
C      26.30739444      14.96831210      14.92739213 
C      22.75729117      21.05796578      23.95477410 
C      11.90603262      21.23673565      10.74041278 
C      14.64581796      26.22587437      18.88541784 
C      19.95573343      26.24623396      15.92794241 
C      23.82144010      15.50654420      24.33151245 
C      10.62294494      15.74230594      10.32054295 
C      19.71694757      16.03796989       7.96150255 
C      14.83104800      15.80422284      26.51182657 
C      19.65493866      24.97645055      21.65303834 
C      14.85556328      25.06671842      13.18673046 
C      21.12478111      11.55089490      10.55382340 
C      13.30370441      11.39552435      23.89619359 
C      24.62442186      11.09224855      16.08264542 
C      19.75762890       7.88510744      15.10856770 
C      14.34035548       7.91436014      19.11130092 
C      26.35519225      18.28324935      20.03177376 
C       8.25887124      18.32784910      14.68289749 
C      18.81818577      24.32174456      11.02555391 
C      15.77695355      24.23303787      23.73506692 
C      23.42532594      24.07464810      15.16210375 
C      11.10789586      24.04219432      19.58705197 
C      17.44877627      21.27602124       8.67619841 
C      20.95739945      10.01402449      23.26175924 
C      13.32567314      10.22935287      11.20747332 
C      12.01746742      20.56949564      24.40698873 
C      22.65270931      20.85687340      10.41269055 
C       9.10631300      13.23004947      13.67871655 
C      18.27183057       9.22528675      11.21372902 
C      16.07099293       9.04827107      23.04747434 
C       8.47451684      20.85284618      20.74931474 
C      26.03935795      20.99887302      14.06690540 
C      17.22067637      21.27658286      26.10551426 
H      16.75916719      20.48925625      26.71450321 
H      16.43656508      21.81044599      25.56164818 
H      17.77355277      21.97023792      26.74858456 
C      25.38572818      13.22017751      20.93058092 
H      26.36165867      12.80140676      20.65638338 
H      25.01166450      12.71986701      21.83236590 
H      25.48724748      14.29598554      21.11005738 
C       9.58641489      11.28974917      18.69312361 
H       8.75065219      11.97602229      18.51003519 
H       9.21279499      10.36572440      19.14823842 
H      10.06763766      11.06816583      17.73600058 
H      26.55533721      15.58117060      14.05203711 
H      25.60462413      14.17954114      14.63719948 
H      27.22400666      14.51992303      15.32859287 
H      26.73910987      17.78157192      19.13578752 
H      27.17722499      18.49667967      20.72503390 
H      25.85899394      19.21597354      19.74832499 
H      26.54078512      20.66856734      13.14932045 
H      26.74742033      21.56373831      14.68404258 
H      25.17735784      21.62625841      13.80965207 
H      24.18345276      23.61253440      18.42497549 
H      23.19137623      23.33519545      19.89332252 
H      22.54286128      22.88498055      18.28984259 
H      23.56739489      24.90815568      14.46476792 
H      24.39337986      23.77268159      15.58134611 
H      22.75352006      24.37146506      15.97364708 
H      20.10306970      25.37471634      20.73499619 
H      19.74097478      25.71357939      22.46006493 
H      18.60047730      24.73869991      21.47530762 
H      21.03736220      26.26314866      15.74933387 
H      19.61255909      27.24698567      16.21372857 
H      19.44270749      25.91129035      15.02078161 
H      17.84315631      24.40638599      10.52968595 
H      19.37369663      23.46863008      10.61911796 
H      19.39114907      25.24279034      10.86872986 
H      14.95055920      27.23248910      18.57750003 
H      15.19931109      25.91523970      19.77714674 
H      13.57115902      26.21428538      19.10285140 
H      14.68392535      25.82672029      12.41505137 
H      15.92914176      24.87074077      13.28191780 
H      14.45993116      25.41722416      14.14700176 
H      10.14181488      23.76328612      19.14752192 
H      11.79938154      24.33610771      18.79114421 
H      10.96671898      24.87147144      20.28972557 
H      16.92804465      21.96922204       8.00511149 
H      17.93667196      20.48796885       8.08860579 
H      18.20471406      21.81593463       9.25326717 
H      23.00448069      21.14125734       9.41351973 
H      22.98919797      19.83954043      10.63686166 
H      23.05019083      21.55523498      11.15810879 
H      23.36998422      14.86203017      10.75559566 
H      23.68577842      15.03233964      12.50748027 
H      24.96164315      15.46763708      11.32079508 
H      20.02217723      16.58860559       7.06453238 
H      19.21734808      15.10505252       7.67111939 
H      20.59827513      15.79367431       8.56215222 
H      20.96536846      10.98583391       9.62839751 
H      20.55790658      11.10357688      11.37602712 
H      22.19126123      11.54900410      10.80878893 
H      18.74044861       9.57720751      10.28708362 
H      17.84050367       8.23134117      11.05046935 
H      19.01251214       9.18513588      12.01980122 
H      13.43951601       7.98959731      14.98744716 
H      13.21895147       9.75596365      15.19007716 
H      13.20235982       8.68013109      16.62411829 
H      12.46783233      10.00975142      10.56192537 
H      13.73143968       9.29874820      11.62149666 
H      14.11036612      10.72761924      10.62933525 
H      15.76323539      14.28428887       7.49527743 
H      16.19860896      15.58669275       8.65077953 
H      14.51402607      14.96616256       8.59180528 
H       9.48171920      12.69583542      12.79681589 
H       9.03543524      14.30305069      13.46864963 
H       8.11999323      12.84105696      13.95583729 
H      10.30694676      15.03651561       9.54416579 
H      10.42230028      16.76862529       9.98725854 
H      10.06620598      15.54925001      11.24223983 
H       7.36566474      18.46638976      14.06183764 
H       8.71795462      19.30165445      14.87993465 
H      10.94140023      21.22828547      10.21958708 
H      12.64148423      21.78884361      10.14109402 
H      11.79322650      21.72229946      11.71458239 
H      11.38542075      23.40044498      14.84498907 
H      12.00249752      22.98621806      16.46790751 
H      10.35335657      23.67546598      16.28447974 
H      20.31348989       7.43408615      14.27913815 
H      18.76703770       7.42126423      15.19216434 
H      20.30130966       7.74316494      16.04678372 
H      24.97311922      10.13338263      15.68247194 
H      24.06062363      10.93557232      17.00671813 
H      25.48304436      11.74231757      16.29118313 
H      24.04787298      16.54184057      24.61554711 
H      24.37876826      15.25090916      23.42579934 
H      24.10404060      14.82643625      25.14375984 
H      19.98035820      14.54395748      26.08940180 
H      18.64131326      13.89412194      27.09516262 
H      18.34411786      15.25996445      25.96912705 
H      15.30715709      14.84300586      26.74493975 
H      13.94471418      15.62662919      25.89527933 
H      14.54981389      16.32135378      27.43608369 
H      12.24170133      11.43271301      23.62502028 
H      13.43227383      10.79847098      24.80630693 
H      13.87235973      10.95786284      23.07021273 
H      16.47857164       8.04227438      23.20086511 
H      15.35044359       9.04138828      22.22183445 
H      15.59604974       9.39711717      23.97169884 
H      20.50688882       9.12446422      22.80548422 
H      20.20259693      10.53225582      23.86193802 
H      21.80371134       9.72418432      23.89597766 
H      15.00058548       7.59579401      18.29530546 
H      13.29750161       7.85916555      18.78648292 
H      22.00397111      21.57266005      24.56489874 
H      22.85877066      21.56806152      22.99199631 
H      23.72119945      21.04904492      24.47628778 
H      11.57497986      21.35071384      23.77787662 
H      11.70111834      20.70307264      25.44817448 
H      11.70549115      19.58213492      24.05268235 
H      15.21462245      25.15765297      23.90761504 
H      16.77329350      24.31323564      24.18744798 
H      15.23829678      23.38561652      24.17274519 
H       7.74925639      21.41256020      20.14693646 
H       9.31358868      21.50420829      21.02132040 
H       7.27634729      14.74203065      19.16526852 
H       7.98094929      15.84448107      20.39076361 
H       8.84988635      14.33728770      19.93622167 
H       9.64399166      15.30003969      23.23830381 
H      11.23081652      14.65172478      23.77164418 
H      10.91296314      14.90677893      22.03059003 
H      21.34967458       8.80469692      17.67914700 
H      21.17860759       7.91942508      19.23179511 
H      21.24113377       9.71080464      19.21643915 
H      14.48256059       7.25320558      19.97488999 
H       7.98129374      20.48897396      21.65810093 
H       7.98294855      17.84597248      15.62789393 
