322
Properties=species:S:1:pos:R:3 i=249 optimized=T E=-4244.7459295277 pbc="F F F" jobid=102_44-Ag-19_6-000005-PBE
Au      16.84733581      17.05350285      15.83711075 
Ag      17.67163686      17.01139860      18.69805707 
Ag      18.59169868      14.97247445      16.82113111 
Ag      15.88022849      14.98259099      17.60955812 
Au      19.53338117      17.78197830      16.61255897 
Au      15.00431482      17.78017903      17.93272622 
Au      17.25296104      19.54079904      17.30213185 
Ag      17.84661480      15.10626926      13.92121203 
Au      16.62126725      15.01119868      20.56242609 
Au      18.21382963      19.52990930      20.15605467 
Au      16.29187824      19.65613753      14.40237203 
Au      19.40588682      14.94880550      19.83827566 
Ag      15.06831480      15.07911791      14.65830659 
Au      18.61421557      17.97983209      13.60180362 
Ag      15.88579126      17.86703373      20.86613274 
Au      20.42130657      17.75452364      19.47964068 
Ag      14.09710739      17.84150848      15.08401859 
Au      21.35226657      15.73480277      17.61279045 
Au      13.11654089      15.75979518      16.84064105 
Au      13.94409454      15.73865542      19.76325996 
Au      20.55197690      15.78118200      14.70068795 
Au      15.39405814      20.36082276      19.42264736 
Au      19.09443704      20.36406395      15.15845721 
Au      20.06712639      20.35936380      17.97885497 
Au      14.45828166      20.44518729      16.60030643 
Au      17.60998902      12.77153108      18.67181806 
Ag      16.85048397      12.75737910      15.62854135 
Au      15.93841837      17.18094509      12.88051240 
Ag      18.53949347      17.03590312      21.63734198 
Ag      19.65344497      13.01130838      15.02389054 
Au      14.80215821      12.95632561      19.33339255 
Au      13.13970760      18.55096451      20.02333641 
Au      21.37550830      18.58537488      14.50893717 
Au      20.36648272      12.99521570      17.83783013 
Au      14.11692064      13.01828548      16.49437963 
Ag      22.25832325      18.58789653      17.24232367 
Au      12.28747409      18.62575442      17.28032304 
Au      17.75131564      22.11460015      18.63599562 
Au      16.79417843      22.15959050      15.96535573 
Ag      20.43576361      19.32496461      21.99648689 
Au      14.05577362      19.43187865      12.62374478 
Au      18.70398800      14.23783240      22.48696844 
Au      15.78206841      14.50128569      11.91247278 
Au      17.27919985      19.45834863      11.56042778 
Au      17.29892882      19.30635924      22.91212679 
Au      18.18841297      16.29037940      11.22835327 
Au      16.24245477      16.09928041      23.19260053 
Au      21.34917316      16.37980659      21.74772308 
Au      13.13975738      16.51322105      12.74049383 
Au      23.19274327      16.51044055      15.48941994 
Au      11.31059161      16.50276966      19.03004767 
Au      22.37250597      13.71813280      15.90660325 
Au      12.11212320      13.73027344      18.51574745 
Au      14.91044334      22.83574948      18.16308997 
Au      19.60748669      22.83970836      16.43014345 
Au      17.78753989      12.46077027      12.89654484 
Au      16.64574764      12.27848018      21.43566821 
Au      20.12025588      14.26479592      12.41740984 
Ag      14.31179152      14.09887377      22.01671878 
Au      21.81944068      21.12510726      15.80940294 
Ag      12.64513864      21.13992402      18.81545800 
Au      13.63816014      16.99309419      22.40614919 
Au      20.84006369      17.18300627      12.05791929 
Au      22.30225336      19.89100042      19.78800657 
Au      12.22172640      20.06053349      14.76651515 
Au      20.04589426      21.79385755      20.37549204 
Au      14.49958881      21.93436070      14.20654178 
Au      15.75662566      10.83937701      17.51076417 
Au      18.74973844      10.85304459      16.87916485 
Au      22.06603020      14.09834063      19.94670079 
Au      12.38075996      14.26473654      14.42930628 
Au      17.03044377      21.79616156      21.41327574 
Au      17.55675095      21.87771962      13.18548527 
Ag      19.69778503      12.12010631      20.56883096 
Au      14.72051795      12.37983695      13.72816024 
Au      23.20811931      16.85209982      19.38190462 
Au      11.29834257      16.95836128      15.09335917 
Ag      20.07028302      20.33402134      12.52467587 
Au      14.46462317      20.18006362      22.03822720 
Au      20.66475107      23.29893784      13.50628675 
Ag      13.99727927      23.00761850      21.02587535 
Au      24.73571476      14.57107446      17.84511499 
Au       9.77161812      14.58787982      16.64513810 
Au      17.26053119      25.00433505      17.35559658 
Ag      21.59993330      10.85480137      14.85313812 
Au      12.97110484      10.65146067      19.61200098 
Au      16.15118588       9.79222275      13.80225770 
Au      18.21359892       9.60052500      20.59683435 
Au      10.40663519      18.33563794      21.19997862 
Au      24.08745612      18.35878117      13.32497134 
Au      24.51152540      20.42837903      16.85869518 
Au       9.99962886      20.44972259      17.71057610 
Au      23.68507411      18.50390415      22.12479702 
Au      10.77497963      18.72856838      12.45581689 
S      19.53219214       9.65126806      14.80808586 
S      14.99726734       9.47159119      19.64341221 
Ag      14.73631646      18.72560621      24.64437792 
Au      19.85094892      18.97597957       9.72593759 
Au      18.31453293      13.38578164       9.94859680 
Au      16.03059964      13.18018883      24.41054614 
Au      19.30264935      21.95404007      23.46568685 
Ag      15.29942272      22.15805192      11.28284171 
S      18.57445253      24.04789160      12.70987079 
S      16.06715635      23.98129335      21.87779378 
S      24.16521744      12.94875224      19.46435128 
S      10.32321485      13.02285036      14.96505203 
Au      12.59875650      13.49762218      11.52881163 
Au      21.76626458      13.22091717      22.79156286 
S       9.00587102      16.10868501      18.27821762 
S      25.50064348      16.11583363      16.23308254 
S      11.28369766      17.18651861      23.08782238 
S      23.21394632      17.22935041      11.42365812 
S      22.84330399      22.71711408      14.19157318 
S      11.65017947      22.72093328      20.48615452 
S      22.25956501      19.44702452      23.73957237 
S      12.27507643      19.70632519      10.92093750 
S      18.98978112       8.84657781      18.53151184 
S      15.30238107       9.01579125      15.83736208 
S      15.96741248      13.43786712       9.68467108 
S      18.38754046      13.19009761      24.67858474 
S      18.38819839      20.30537577      24.89273967 
S      16.10145006      20.51161885       9.70445787 
S      24.19290735      21.31038921      19.04204893 
S      10.33796131      21.44607709      15.58041690 
S      14.91296295      25.19122289      17.52552724 
S      19.60956762      25.15935895      17.18824395 
S      17.00568966      10.43019511      11.69624362 
S      17.44393597      10.32351524      22.70328684 
S      16.05460955      16.91486353      25.52439823 
S      18.59141807      17.14930351       8.91889005 
S      21.96752544      15.31263812      23.86091187 
S      12.36603235      15.61910069      10.55111291 
S      23.68718059      12.04587791      14.70308365 
S      10.95144278      11.88380471      19.63000174 
S      13.66360863      13.16223360      24.22839702 
S      20.67741839      13.34443683      10.21388969 
S      21.64006662      11.07718133      21.83344054 
S      12.84940487      11.33229345      12.42009611 
S      20.63772575      23.39282035      22.11749290 
S      13.93877724      23.68626206      12.62883040 
S      25.16142994      17.19603203      20.80585494 
S       9.31052122      17.37126018      13.72521773 
S      13.73272957      20.91166336      24.24356848 
S      20.86070615      21.04374199      10.26475939 
S      25.48488457      19.48924997      14.89318206 
S       9.00994660      19.48546039      19.65202526 
C      18.79887351      14.42215726      25.96767255 
C      15.58934615      14.73822085       8.45002186 
C      23.42245549      22.95753174      18.82630633 
C      11.11026329      23.07865809      15.88587517 
C      20.80217387       8.67560370      18.75784108 
C      13.47894842       9.08169294      15.64303768 
C      10.63459798      15.47957153      22.92845890 
C      23.78191616      15.49884727      11.62907454 
C       8.21270520      15.08274494      19.57533651 
C      26.28922491      15.10771940      14.92010242 
C      22.87362131      21.16141015      23.95936451 
C      11.75470577      21.46064749      10.81316081 
C      14.66297815      26.24781414      19.00753814 
C      19.87155173      26.28392752      15.75926647 
C      23.75852724      15.52230923      24.20075177 
C      10.56247386      15.84376104      10.29943571 
C      19.81181942      16.12283812       8.01472069 
C      14.85988320      15.88305475      26.46072309 
C      19.68317750      24.91087063      21.74060905 
C      14.93662842      25.13789991      13.14311737 
C      21.16511883      11.60619208      10.53592390 
C      13.14188786      11.43645722      23.88033829 
C      24.77683587      11.26024086      15.95886804 
C      19.92089103       7.90901585      15.25695592 
C      14.61701893       7.75148511      19.13498521 
C      26.33259758      18.29459872      19.92508189 
C       8.16281625      18.43092686      14.68126299 
C      18.81215166      24.26168857      10.90417351 
C      15.80702187      24.14949099      23.68503822 
C      23.44733882      24.16017491      15.15005600 
C      11.13896854      24.25196096      19.60921979 
C      17.29430032      21.33314828       8.57854223 
C      21.01707456      10.00956043      23.18992852 
C      13.50873120      10.34590934      11.02343593 
C      11.90212164      20.78729070      24.26840163 
C      22.68219494      20.83766419      10.22234484 
C       9.12999008      13.35630942      13.61309614 
C      18.37131346       9.26287007      11.34029485 
C      16.05330971       9.21743673      23.14502750 
C       8.43942622      20.95374655      20.58660657 
C      26.07318452      20.96052989      13.97345687 
C      17.15672460      21.14320276      25.96075030 
H      16.65145194      20.36294213      26.54413664 
H      16.41648368      21.69848857      25.37842560 
H      17.69321054      21.82197611      26.63379708 
C      25.30635633      13.24784023      20.86694210 
H      26.28426988      12.82450564      20.60900442 
H      24.89005156      12.72838643      21.73922778 
H      25.40766420      14.31854540      21.07465006 
C       9.91847977      11.09161969      18.33438927 
H       9.08353765      11.76817486      18.11407329 
H       9.54050252      10.14333025      18.73314694 
H      10.48680269      10.91759977      17.41615762 
H      26.49705070      15.77741047      14.07615960 
H      25.63345745      14.29105970      14.59651946 
H      27.23022709      14.70446091      15.31179077 
H      26.72215192      17.74327991      19.06123225 
H      27.14860894      18.53745784      20.61585131 
H      25.84809691      19.21557922      19.58811179 
H      26.57635800      20.60719731      13.06593546 
H      26.79130631      21.49217344      14.60869174 
H      25.23889573      21.62022812      13.70760586 
H      24.15662373      23.62918166      18.36780289 
H      23.15161293      23.32310841      19.82407979 
H      22.51993129      22.89150941      18.20603733 
H      23.60806688      24.99945002      14.46369627 
H      24.40034623      23.87315286      15.61196895 
H      22.73333906      24.44138508      15.93082228 
H      20.11959951      25.36558722      20.84358479 
H      19.78907504      25.59304397      22.59237452 
H      18.62386600      24.68774172      21.56678034 
H      20.93433121      26.24706282      15.49220765 
H      19.60300690      27.29916969      16.07324649 
H      19.27049797      25.98236474      14.89626048 
H      17.81975538      24.33523595      10.44227456 
H      19.36975181      23.42075822      10.47740767 
H      19.36569227      25.19410289      10.74175469 
H      14.97276331      27.26784253      18.75306224 
H      15.23661880      25.87935947      19.86405316 
H      13.59371170      26.23625514      19.24987616 
H      14.84346427      25.89823575      12.35843873 
H      15.99083401      24.87568681      13.28130309 
H      14.52908685      25.52535628      14.08399945 
H      10.14136198      24.08761103      19.18367039 
H      11.83558739      24.50030360      18.80179112 
H      11.09391809      25.07953250      20.32645129 
H      16.72536508      21.98554213       7.90558495 
H      17.80415990      20.55248456       8.00063693 
H      18.03994556      21.91857343       9.12261298 
H      23.01282212      20.82737043       9.17779002 
H      22.99993692      19.91543912      10.71857569 
H      23.11764407      21.69880564      10.74311067 
H      23.29450563      14.90144079      10.84916300 
H      23.50588994      15.10605392      12.61435372 
H      24.86970025      15.47466297      11.49870591 
H      20.11521960      16.66810386       7.11362074 
H      19.31701393      15.18269326       7.73900413 
H      20.68784330      15.90073310       8.63115943 
H      21.03662755      11.02563920       9.61520534 
H      20.57028421      11.17253997      11.34541722 
H      22.22307120      11.61122891      10.82448413 
H      18.86874031       9.60492483      10.42537569 
H      17.93622519       8.27092005      11.17214937 
H      19.08207579       9.22545134      12.17344098 
H      13.16781694       8.25025525      15.00001593 
H      13.16130588      10.03250529      15.20102995 
H      13.02868604       8.97535130      16.63848464 
H      12.67289624      10.11519363      10.35277383 
H      13.92895135       9.42127850      11.43734882 
H      14.28996963      10.88735563      10.48019096 
H      15.80875879      14.33423020       7.45482017 
H      16.17980946      15.64385240       8.62674383 
H      14.52005254      14.96863193       8.53456368 
H       9.51601302      12.86512383      12.71103204 
H       9.02021341      14.43194749      13.43799998 
H       8.16207371      12.92325401      13.89143240 
H      10.24377653      15.17038962       9.49547421 
H      10.39899242      16.88775286      10.00452582 
H       9.99738785      15.63192811      11.21148126 
H       7.35748311      18.75013423      14.00951006 
H       8.67003333      19.30753294      15.09479772 
H      10.76935265      21.49464184      10.33444392 
H      12.48857046      21.98809681      10.19039752 
H      11.70641415      21.92988521      11.80031348 
H      11.37637376      23.50124140      14.90937998 
H      12.01814081      22.98276564      16.49428236 
H      10.37864821      23.72095501      16.38822587 
H      19.79507816       7.30498767      14.35004154 
H      19.21113076       7.57518249      16.02344102 
H      20.94367677       7.79383990      15.62606522 
H      25.20756512      10.35632934      15.51267267 
H      24.22971972      11.00473583      16.87086303 
H      25.57493315      11.96824517      16.21456642 
H      23.90943888      16.55548535      24.53738612 
H      24.36342958      15.33692493      23.30880233 
H      24.03590569      14.82061699      24.99585204 
H      19.87360032      14.62913807      25.89396502 
H      18.56891384      13.97482211      26.94193105 
H      18.22924649      15.34968913      25.83591521 
H      15.33893348      14.92358601      26.69483729 
H      13.94936279      15.69254733      25.88503586 
H      14.61046829      16.41433822      27.38660168 
H      12.06440229      11.46265680      23.67780946 
H      13.33195759      10.81415210      24.76185724 
H      13.65782401      11.02634284      23.00649934 
H      16.47156600       8.23622763      23.39783015 
H      15.34779556       9.12454035      22.31190257 
H      15.56036248       9.64715511      24.02468475 
H      20.64328619       9.08366812      22.73572774 
H      20.20195337      10.48973927      23.74039280 
H      21.85046458       9.78769951      23.86577460 
H      15.56568757       7.20084413      19.16786531 
H      14.21666665       7.70398463      18.11739927 
H      22.15862888      21.68301335      24.60796180 
H      22.94622594      21.69178075      23.00531991 
H      23.85655425      21.12240518      24.44159304 
H      11.49307876      21.50938892      23.55218496 
H      11.57194245      21.03998809      25.28322794 
H      11.55943536      19.77961046      24.01489596 
H      15.30587013      25.10877954      23.86317481 
H      16.78423028      24.14613550      24.18299755 
H      15.18323739      23.33552394      24.07281332 
H       7.70356114      21.48042269      19.96772101 
H       9.28180577      21.61599059      20.82435046 
H       7.26982338      14.68948083      19.17806098 
H       8.00867755      15.73943687      20.43029638 
H       8.86316835      14.25796321      19.88560010 
H       9.55423828      15.50258186      23.11108600 
H      11.13406269      14.86528462      23.68754665 
H      10.84420292      15.07197939      21.93298668 
H      21.24983367       8.50325902      17.77196878 
H      20.99671517       7.81180905      19.40380172 
H      21.23623412       9.57653476      19.20505299 
H      13.90644198       7.30819468      19.84074704 
H       7.96115932      20.60026516      21.50727652 
H       7.75448082      17.82328658      15.49744481 
