322
Properties=species:S:1:pos:R:3 i=296 optimized=T E=-4286.35878645 pbc="F F F" jobid=102_44-Ag-30_4-000005-PBE
Au      16.83833363      17.02079867      15.88003154 
Au      17.68681103      16.94538970      18.76302137 
Au      18.58195398      14.91745450      16.88549033 
Au      15.84688880      14.88823484      17.68055512 
Au      19.56281123      17.74157428      16.60960696 
Ag      15.03164233      17.70570103      18.01331601 
Au      17.30011964      19.48271395      17.34026322 
Au      17.86165798      15.02525744      13.95966230 
Ag      16.60683419      14.91412138      20.58229194 
Au      18.24863464      19.48459210      20.16490443 
Au      16.33237893      19.54781684      14.44939249 
Au      19.42693118      14.87182623      19.89484841 
Au      15.03539631      14.95424033      14.70681221 
Au      18.67622990      17.87773303      13.64876866 
Ag      15.92485573      17.80418596      20.96041970 
Au      20.47079154      17.61863218      19.52617989 
Ag      14.10925330      17.74386781      15.07594863 
Au      21.35690743      15.63358291      17.65207480 
Au      13.14195355      15.68001423      16.86276762 
Au      13.92420952      15.64779161      19.83311289 
Au      20.60975256      15.72780299      14.76565860 
Au      15.50261292      20.27753849      19.47460906 
Ag      19.12916147      20.29588626      15.20017572 
Ag      20.06204698      20.26426565      18.02597532 
Au      14.53026969      20.34268569      16.59201597 
Au      17.57007017      12.68679858      18.81077356 
Au      16.78911905      12.73554562      15.67029173 
Au      15.99824005      17.08815154      12.88836492 
Ag      18.55847141      16.95134598      21.70161024 
Au      19.64659349      12.93959822      15.09346977 
Ag      14.75113206      12.88648658      19.41103613 
Au      13.19416856      18.48774638      20.08215323 
Ag      21.44561693      18.50899033      14.55740377 
Au      20.35943839      12.90227287      17.91238916 
Ag      14.04373284      12.91106654      16.57515435 
Ag      22.23489630      18.46232087      17.30367585 
Au      12.38952960      18.51298149      17.27580420 
Ag      17.80472935      22.03477765      18.66842390 
Au      16.87276158      22.04312348      15.99876462 
Au      20.41635493      19.22890727      21.99644106 
Au      14.11289169      19.34620827      12.64566590 
Au      18.68999838      14.17191569      22.51562748 
Au      15.72432239      14.36786204      12.00288024 
Au      17.28797729      19.34251738      11.61101494 
Au      17.41379331      19.28327401      22.95222987 
Ag      18.28548784      16.13059972      11.27327666 
Au      16.28291979      15.98490536      23.23250677 
Au      21.38531384      16.19964911      21.77484053 
Au      13.20951853      16.31775749      12.76618203 
Ag      23.23626518      16.36142797      15.59695733 
Au      11.33727532      16.49560916      19.02637474 
Ag      22.39150092      13.61106165      15.96365302 
Au      12.05790914      13.70955877      18.54502751 
Au      15.00918498      22.76117984      18.16403423 
Ag      19.66606298      22.76498611      16.48897455 
Ag      17.77912688      12.37250455      12.90191009 
Ag      16.67641235      12.17552830      21.53049729 
Au      20.18887105      14.16817625      12.49548386 
Ag      14.35031873      14.02417044      22.07686058 
Au      21.83029017      20.99864043      15.91819992 
Au      12.77122042      21.02106153      18.72838000 
Au      13.68836963      16.91182712      22.46182543 
Au      20.92524828      17.09288226      12.15654874 
Au      22.28043030      19.77044910      19.83320531 
Au      12.28659995      19.98634334      14.77787163 
Ag      20.01308465      21.72219815      20.47138997 
Ag      14.58521535      21.83447845      14.17684014 
Au      15.78036293      10.80885428      17.51370666 
Au      18.67779751      10.78920034      16.88670954 
Ag      22.10218157      13.97256404      19.99562521 
Ag      12.34312522      14.13706582      14.50339819 
Ag      17.09480614      21.75466447      21.46840981 
Au      17.56118728      21.78976179      13.22872067 
Au      19.67835454      12.06540737      20.61886192 
Ag      14.68540563      12.23416824      13.77984791 
Ag      23.26105695      16.65900679      19.41645060 
Ag      11.29792275      16.88826482      15.10952807 
Au      20.06351027      20.15707363      12.56794938 
Au      14.55302049      20.16139250      22.07306629 
Au      20.71043550      23.16717399      13.61594297 
Au      13.97601389      23.14284560      21.04165345 
Au      24.73133315      14.37619230      17.83050460 
Au       9.77428547      14.57085282      16.62372152 
Au      17.50160226      24.87044404      17.41875023 
Au      21.46766658      10.68203717      14.70169132 
Au      12.88379400      10.65970762      19.57627947 
Ag      16.31998795       9.83018114      13.88013516 
Au      18.19968548       9.52770440      20.61270513 
Au      10.42150837      18.26249483      21.24861687 
Au      24.18187999      18.21106387      13.47592021 
Au      24.51869680      20.28875361      17.01949958 
Ag      10.12222563      20.30932116      17.69148098 
Au      23.75132756      18.30390898      22.09435090 
Ag      10.97500124      18.48615607      12.51363314 
S      19.40235811       9.54544500      14.73446118 
S      14.94870798       9.55994957      19.63650217 
Ag      14.87934162      18.63379666      24.67251474 
Au      19.89895944      18.81236490       9.75218481 
Au      18.33807742      13.30818498      10.02404638 
Au      16.07303121      13.01503042      24.42773064 
Au      19.34273854      22.06657961      23.45518498 
Au      15.33936203      22.20195272      11.22450505 
S      18.63419622      23.96777972      12.84947259 
S      16.03396133      23.98503450      21.82239677 
S      24.16624267      12.71653002      19.40255469 
S      10.25540113      12.89891862      15.03451274 
Au      12.54793232      13.26131405      11.65677762 
Au      21.83548174      13.15720712      22.86926001 
S       9.04519226      16.17837615      18.19334053 
S      25.59314524      15.95312486      16.30443203 
S      11.33351690      17.12593390      23.12580500 
S      23.32375205      17.11320709      11.56156739 
S      22.88873277      22.58390711      14.29295510 
S      11.78016250      22.56552183      20.37204644 
S      22.26285189      19.30780003      23.63728867 
S      12.43363240      19.49530679      10.86757654 
S      19.00777292       8.85826972      18.51420660 
S      15.39916895       8.90779036      15.88419359 
S      15.98824935      13.39704091       9.77272499 
S      18.42837217      13.04610163      24.67968915 
S      18.43857595      20.42107612      24.89340099 
S      16.19612135      20.54146669       9.77547334 
S      24.16495680      21.20728897      19.18488337 
S      10.31155568      21.27650291      15.44632695 
S      15.14748287      25.08242345      17.43641379 
S      19.85065339      25.09134896      17.39085638 
S      16.95866521      10.38719412      11.62489342 
S      17.39312844      10.06717121      22.76267729 
S      16.12474930      16.78359806      25.58826949 
S      18.63857848      17.01368784       8.92407014 
S      22.08965984      15.23651781      23.93066093 
S      12.34491818      15.37444856      10.64079475 
S      23.52611510      11.83417904      14.61427076 
S      10.86421211      11.87816162      19.65050134 
S      13.71051737      12.99308649      24.25080053 
S      20.69894397      13.24839518      10.29897321 
S      21.57337757      11.04670598      21.86798708 
S      12.74870927      11.11582154      12.60012222 
S      20.66149848      23.50317782      22.10340128 
S      14.03112325      23.65681166      12.56788708 
S      25.27081610      16.99462170      20.84567321 
S       9.31373885      17.15302185      13.65457128 
S      13.88457228      20.83373119      24.31160185 
S      20.89397358      20.88470559      10.36351440 
S      25.53150472      19.34377339      15.07705985 
S       9.03418192      19.40458242      19.69645915 
C      18.83137935      14.25444138      25.99443551 
C      15.60052391      14.72818307       8.57348108 
C      23.41482714      22.85818189      18.92565732 
C      10.98228039      22.96988285      15.67002003 
C      20.83011798       8.80292879      18.72064960 
C      13.57955375       8.84783442      15.64818653 
C      10.67264899      15.42109449      22.98620423 
C      23.86339997      15.37041430      11.73665524 
C       8.15481820      15.23220204      19.48783480 
C      26.38164690      14.96419700      14.97251243 
C      22.86659301      21.03163519      23.79723099 
C      11.84034419      21.22864053      10.75762607 
C      14.80895231      26.20942239      18.84670843 
C      20.13553287      26.27559068      16.01208079 
C      23.89083478      15.42444637      24.22688532 
C      10.55083248      15.64443197      10.36972262 
C      19.83685677      15.99327611       7.98111866 
C      14.87939058      15.78208487      26.49130553 
C      19.68383381      24.99391361      21.66876663 
C      15.04552763      25.10332104      13.06198557 
C      21.17559308      11.50352362      10.60506607 
C      13.20301014      11.26823064      23.87984792 
C      24.60970912      10.94378833      15.80365462 
C      19.75654052       7.79718609      15.16204090 
C      14.63875210       7.80655448      19.19332278 
C      26.41622924      18.10493114      19.94106754 
C       8.14302184      18.25380452      14.54544622 
C      18.88159405      24.21161201      11.04899550 
C      15.77910091      24.22038526      23.62405761 
C      23.51649298      24.02906767      15.23283917 
C      11.16913763      24.03930370      19.46423026 
C      17.43450386      21.34451133       8.68991274 
C      20.93298133       9.99607174      23.22732804 
C      13.36592585      10.07102641      11.22172200 
C      12.05422473      20.71439064      24.35216813 
C      22.71629681      20.69628858      10.35239951 
C       9.07426050      13.19689224      13.66175419 
C      18.30260789       9.20797654      11.21008031 
C      16.01448708       8.90401533      23.08337994 
C       8.47759383      20.89391725      20.61005474 
C      26.11152732      20.82020183      14.15916446 
C      17.20904106      21.24582404      25.97339784 
H      16.72937220      20.46272519      26.57414344 
H      16.44650412      21.77952891      25.39983289 
H      17.74403255      21.94217989      26.62949877 
C      25.38423597      12.94050657      20.75862347 
H      26.34330786      12.50955982      20.44988869 
H      24.99676576      12.40089007      21.63167496 
H      25.51511101      13.99998023      21.00410101 
C       9.79052879      11.10935127      18.37475139 
H       8.95416108      11.79393461      18.18827808 
H       9.41792056      10.15924627      18.77414902 
H      10.32788300      10.94430509      17.43641269 
H      26.64305233      15.65925140      14.16470868 
H      25.70428651      14.19294648      14.58988768 
H      27.29306364      14.50007041      15.36556155 
H      26.89048531      17.50954390      19.15168371 
H      27.17482159      18.47290604      20.64075868 
H      25.89042974      18.95080530      19.48730956 
H      26.63305769      20.47117861      13.26037057 
H      26.81339849      21.36197637      14.80391411 
H      25.27249479      21.46854774      13.87967580 
H      24.17802209      23.52306217      18.50588129 
H      23.09144058      23.23077553      19.90550797 
H      22.54902381      22.79864287      18.25472733 
H      23.67535158      24.86193393      14.53837882 
H      24.47237179      23.73885192      15.68661180 
H      22.81266286      24.32371201      16.01830388 
H      20.13523838      25.43532223      20.77213837 
H      19.74301158      25.70306454      22.50213183 
H      18.63676066      24.74683488      21.46251596 
H      21.21978550      26.35524591      15.86780040 
H      19.73190066      27.25443586      16.29282516 
H      19.67302010      25.92714980      15.08305065 
H      17.88880786      24.27489993      10.58592473 
H      19.44923909      23.38188259      10.61357777 
H      19.42454540      25.15232711      10.90000861 
H      15.14685785      27.21361103      18.56629050 
H      15.31617840      25.87591143      19.75762723 
H      13.72545619      26.21669269      19.01466168 
H      15.06218121      25.81929273      12.23247961 
H      16.06786528      24.81108083      13.32386115 
H      14.56410268      25.56006975      13.93482973 
H      10.20583140      23.77662782      19.00946044 
H      11.87295442      24.34103101      18.68220522 
H      11.02770986      24.85752269      20.17980303 
H      16.90630511      22.04494124       8.03259454 
H      17.90557506      20.55181859       8.09521870 
H      18.20356349      21.87080205       9.26126532 
H      23.06359284      20.80191303       9.31793443 
H      23.02487717      19.72318043      10.74612997 
H      23.13681252      21.49680659      10.97243221 
H      23.40626884      14.80860310      10.91310556 
H      23.53001963      14.94501286      12.69045673 
H      24.95542823      15.33089977      11.65905199 
H      20.14804240      16.55147687       7.09128391 
H      19.32068740      15.07150715       7.68404542 
H      20.71065615      15.73239939       8.58521791 
H      21.06584594      10.94144260       9.67065749 
H      20.56462875      11.05595298      11.39463590 
H      22.22610992      11.50272854      10.91907574 
H      18.78945847       9.55756203      10.29243918 
H      17.85637798       8.22304795      11.03125037 
H      19.03524850       9.13907752      12.02166404 
H      13.33904667       7.94056973      15.08091931 
H      13.20975561       9.72410784      15.10430574 
H      13.09871272       8.80331566      16.63379302 
H      12.53038791       9.86984441      10.54227573 
H      13.72838711       9.13215077      11.65772404 
H      14.18842192      10.55196492      10.68389930 
H      15.80685554      14.34061147       7.56889207 
H      16.19743501      15.62813114       8.75724288 
H      14.53264201      14.95812814       8.67478511 
H       9.46907808      12.68140066      12.77736768 
H       8.97023332      14.26868238      13.45828692 
H       8.10128156      12.77466847      13.93739244 
H      10.21766503      14.95139196       9.58869586 
H      10.42397216      16.67998627      10.02940014 
H       9.97120524      15.48822236      11.28385343 
H       7.25976470      18.38648972      13.90958253 
H       8.58563514      19.23287094      14.75392861 
H      10.88660291      21.22424959      10.21706563 
H      12.58383183      21.81216134      10.19988209 
H      11.70021826      21.67249604      11.74816830 
H      11.28408579      23.35584284      14.68915629 
H      11.84888562      22.96446060      16.34129418 
H      10.18762216      23.59980605      16.08663093 
H      20.21128316       7.30744475      14.29354243 
H      18.79679528       7.32254222      15.39970736 
H      20.42251195       7.71316784      16.02542289 
H      24.88067327       9.97197652      15.37689845 
H      24.12441963      10.80981602      16.77511340 
H      25.51161448      11.55250075      15.94200669 
H      24.06542640      16.46077115      24.54160381 
H      24.47390018      15.21579994      23.32567517 
H      24.17503217      14.73303751      25.02844651 
H      19.90137632      14.48260876      25.91399198 
H      18.62128928      13.77970226      26.96007418 
H      18.24274000      15.17401911      25.89059637 
H      15.33062648      14.81350229      26.74235396 
H      13.98367358      15.60921535      25.88721562 
H      14.61040573      16.31801788      27.40889894 
H      12.12929578      11.28990990      23.65813817 
H      13.38267232      10.64120294      24.76011583 
H      13.73846948      10.86728299      23.01365755 
H      16.42442490       7.89513972      23.20490568 
H      15.28736386       8.91820429      22.26397333 
H      15.53522861       9.21807762      24.01817914 
H      20.51039189       9.09004214      22.77642344 
H      20.15471276      10.50837091      23.80195827 
H      21.77905214       9.74051858      23.87555068 
H      15.51964482       7.24562023      19.53077843 
H      14.53983535       7.68962773      18.10788492 
H      22.14252119      21.58134807      24.41187373 
H      22.96198909      21.51895147      22.82215325 
H      23.84101079      21.00496210      24.29831521 
H      11.63887561      21.47788784      23.68458037 
H      11.73556225      20.90874759      25.38336383 
H      11.70317764      19.72478147      24.04395488 
H      15.21705897      25.14762745      23.78330390 
H      16.76813939      24.30059802      24.09196363 
H      15.22857400      23.37540445      24.05387817 
H       7.77405383      21.43684721      19.96737978 
H       9.32505595      21.53991970      20.86789718 
H       7.20704256      14.87617462      19.06776857 
H       7.95727426      15.92511080      20.31548847 
H       8.75082833      14.38528423      19.84351945 
H       9.59283406      15.45485298      23.17056096 
H      11.16758837      14.81015446      23.75076908 
H      10.87578492      15.00207893      21.99441774 
H      21.28588463       8.73166010      17.72528147 
H      21.08734408       7.91639429      19.31187477 
H      21.20129962       9.70455994      19.21992674 
H      13.74481927       7.44147492      19.70805624 
H       7.96206889      20.57329059      21.52244855 
H       7.85225170      17.77218017      15.48600093 
