322
Properties=species:S:1:pos:R:3 i=203 optimized=T E=-4244.7674392668 pbc="F F F" jobid=102_44-Ag-19_6-000002-PBE
Au      16.86245611      17.05689193      15.80000776 
Ag      17.68384519      17.03053402      18.65264791 
Ag      18.66019380      14.96823583      16.76645903 
Au      15.94860946      14.98563856      17.58180032 
Au      19.53173981      17.78841772      16.57010657 
Au      15.00280759      17.81844114      17.89865500 
Au      17.27772430      19.54529578      17.27837378 
Au      17.92065346      15.09299649      13.87261713 
Au      16.67551536      15.00106293      20.50845275 
Au      18.22807916      19.54142071      20.13690614 
Au      16.29501786      19.65545757      14.40067573 
Au      19.44733946      14.95978844      19.75842678 
Au      15.11541298      15.02017767      14.54155209 
Au      18.64911994      17.98123765      13.62416402 
Au      15.90949599      17.85467471      20.89565486 
Au      20.44822340      17.71831942      19.43567170 
Au      14.05222539      17.82330689      15.03162569 
Au      21.38093461      15.73928955      17.56102341 
Au      13.15626882      15.78510022      16.79545271 
Au      13.94862764      15.74905144      19.71063046 
Ag      20.61027310      15.80630048      14.66344602 
Ag      15.45698307      20.33520418      19.40083706 
Au      19.09060734      20.40017828      15.12579454 
Ag      20.04399281      20.39510467      17.95751233 
Au      14.45126929      20.42572576      16.57222384 
Ag      17.66299971      12.75510771      18.67785241 
Au      16.92655068      12.79918146      15.62768739 
Au      15.95658463      17.20845172      12.81668404 
Au      18.54121763      17.01500856      21.61793781 
Ag      19.74493046      12.99806793      14.96036128 
Au      14.84986334      12.93124556      19.27121517 
Au      13.15727898      18.57437901      19.99093889 
Au      21.41709417      18.58605033      14.48749063 
Au      20.39649014      12.96299621      17.79972307 
Au      14.14626878      13.02071357      16.45225588 
Au      22.21225976      18.62846910      17.23971929 
Ag      12.29072966      18.63002991      17.23626831 
Au      17.74914547      22.10182130      18.62043766 
Au      16.77850040      22.14392674      15.97188545 
Au      20.44261048      19.24919493      21.95928902 
Au      14.09544296      19.46648976      12.58169433 
Ag      18.81197004      14.24958848      22.47293700 
Au      15.82025208      14.48617832      11.81894254 
Au      17.32464973      19.47166848      11.57603295 
Ag      17.30666055      19.28282272      22.96638233 
Au      18.24672021      16.31699499      11.21765440 
Ag      16.30151097      16.03465093      23.23802986 
Au      21.37540707      16.33939114      21.74036718 
Au      13.13723300      16.49806924      12.70834482 
Au      23.26044402      16.56078638      15.51425608 
Au      11.33259159      16.52227580      18.94610862 
Au      22.40732302      13.77490985      15.87886844 
Au      12.11911924      13.75222652      18.41813921 
Ag      14.92432209      22.87277938      18.15228932 
Au      19.58395631      22.84459278      16.38156842 
Au      17.80609897      12.45041570      12.84472532 
Au      16.73429220      12.32372899      21.42036293 
Au      20.14485714      14.28329027      12.33811045 
Au      14.36119282      14.12197995      21.94036674 
Au      21.83418906      21.13747779      15.77073268 
Au      12.74113930      21.13253417      18.70058823 
Au      13.65785630      17.01569972      22.35801554 
Au      20.89618935      17.19435188      12.05031285 
Au      22.26015617      19.93146032      19.78731707 
Ag      12.18836559      19.98926573      14.71239284 
Au      19.97913228      21.77568247      20.43566351 
Au      14.52072581      21.94535118      14.22265309 
Au      15.74404781      10.82578549      17.38232553 
Au      18.71676635      10.85383299      16.78515604 
Au      22.12598644      14.16780664      19.92334375 
Au      12.43440207      14.20896049      14.43235812 
Au      17.02093733      21.76719434      21.39021181 
Ag      17.49929257      21.92757240      13.14223141 
Au      19.77530512      12.19456752      20.53968704 
Ag      14.84723948      12.27413269      13.67918197 
Ag      23.25953097      16.87448837      19.35315599 
Ag      11.26367936      16.91266486      15.05649518 
Au      20.04958067      20.35398519      12.52430698 
Au      14.55142348      20.13421099      22.05861366 
Au      20.60389376      23.35593126      13.52430669 
Au      13.90821083      23.19539858      21.07892880 
Au      24.80839294      14.54896687      17.79564128 
Au       9.76554512      14.62619518      16.57303394 
Au      17.20446392      24.96582407      17.37720153 
Au      21.48672802      10.68660915      14.66787804 
Au      12.93913219      10.71678548      19.53895078 
Ag      16.55046141       9.85431859      13.68953559 
Au      18.32582008       9.63090047      20.41619661 
Au      10.44894887      18.26786444      21.19882935 
Au      24.15556081      18.40290556      13.35766604 
Au      24.49109524      20.46657202      16.90309616 
Au      10.00365509      20.41026231      17.70123215 
Au      23.74433559      18.45714553      22.04816736 
Au      10.74563253      18.60689028      12.45015275 
S      19.44095845       9.53610579      14.58898447 
S      14.94570260       9.50647347      19.43145368 
Ag      14.71800002      18.67708354      24.67743670 
Au      19.86514324      18.95340110       9.67191438 
Ag      18.40375532      13.41010907      10.01893534 
Au      16.15423330      13.17538929      24.39322562 
Au      19.24540131      22.02548828      23.46541894 
Au      15.24635834      22.23235929      11.17120650 
S      18.53027956      24.17850695      12.77562440 
S      15.99160833      23.94653858      21.87529138 
S      24.20456146      12.98365782      19.45319066 
S      10.34030187      13.04194414      14.92199609 
Au      12.69569676      13.33278256      11.59196352 
Au      21.84646437      13.27597709      22.84431381 
S       9.01463162      16.17537281      18.18673071 
S      25.59012945      16.06544664      16.16954234 
S      11.31525064      17.11074824      23.08757668 
S      23.28237915      17.27388583      11.45395706 
S      22.80156066      22.77339456      14.16220158 
S      11.72849292      22.64064563      20.38730687 
S      22.25238402      19.38960069      23.63305154 
S      12.25182372      19.64722643      10.95932964 
S      19.19412681       8.92301864      18.36423219 
S      15.67780852       8.90537987      15.69990852 
S      16.00169268      13.50140264       9.59887658 
S      18.48683589      13.16584620      24.71094660 
S      18.40204080      20.38176824      24.92507674 
S      16.18157682      20.61775358       9.73344484 
S      24.13392146      21.37141434      19.07819750 
S      10.27459299      21.38390409      15.55998733 
S      14.86769456      25.26925179      17.45474189 
S      19.56646727      25.11069570      17.28538881 
S      17.16862222      10.54007705      11.44145513 
S      17.47911729      10.26436340      22.52703086 
S      16.04242609      16.89645703      25.58224999 
S      18.60303993      17.12488219       8.89423456 
S      22.07470575      15.36221261      23.90052707 
S      12.41244867      15.45443178      10.60958567 
S      23.50135449      11.92159992      14.70244514 
S      10.94818092      11.98500978      19.64432241 
S      13.78783926      13.19247346      24.11733354 
S      20.86840119      13.39511873      10.19309212 
S      21.61745889      11.15222848      21.85650113 
S      12.95592457      11.15140842      12.44231725 
S      20.57423338      23.47074815      22.10291655 
S      13.92350927      23.63190602      12.56804776 
S      25.28457422      17.20210146      20.77214874 
S       9.21969069      17.29078353      13.67670639 
S      13.75509347      20.87641462      24.25155754 
S      20.82438892      21.02464437      10.30357766 
S      25.51336670      19.55849751      14.94338890 
S       9.05196610      19.43102086      19.65874121 
C      18.86795399      14.38712963      26.02401940 
C      15.60427886      14.83119982       8.40174842 
C      23.35927037      23.01268962      18.83319423 
C      11.04927480      23.02237557      15.83388856 
C      21.01571379       8.97315809      18.57663242 
C      13.88051028       8.69541393      15.39102257 
C      10.69708376      15.39500100      22.90224486 
C      23.85964244      15.54579249      11.64318683 
C       8.21018141      15.17334906      19.49573301 
C      26.30451311      15.02899711      14.83538946 
C      22.80235167      21.12899042      23.80841804 
C      11.65720798      21.37687084      10.82973258 
C      14.61933852      26.37340364      18.90330532 
C      19.86188706      26.30173764      15.91738864 
C      23.87513795      15.56853069      24.18863724 
C      10.60814556      15.65185595      10.34427716 
C      19.80046943      16.07523862       7.98554803 
C      14.84337147      15.85803015      26.51003797 
C      19.60664192      24.96255696      21.65858322 
C      14.88453844      25.12338463      13.03151638 
C      21.48258096      11.70694691      10.56805060 
C      13.25317675      11.47096628      23.77509921 
C      24.51996250      11.08674960      15.98369098 
C      19.79054370       7.79328483      15.03732029 
C      14.51224428       7.80708745      18.88327606 
C      26.40804953      18.35669362      19.89660025 
C       8.07922010      18.39556445      14.59438166 
C      18.76951482      24.43916128      10.97461945 
C      15.75720227      24.11251930      23.68498665 
C      23.41956659      24.20778157      15.12452523 
C      11.10420429      24.12791558      19.51229665 
C      17.37930927      21.48662922       8.65213262 
C      20.95520699      10.09553918      23.19965751 
C      13.59673931      10.19957006      11.00934491 
C      11.92470451      20.76963505      24.20065649 
C      22.65000298      20.87123235      10.29200569 
C       9.16867571      13.33246490      13.54230180 
C      18.60951738       9.49694835      10.99910714 
C      16.07243264       9.15082696      22.89185287 
C       8.48396460      20.88986375      20.61101944 
C      26.06711307      21.04713042      14.03054770 
C      17.16873084      21.18135437      26.02147999 
H      16.72525022      20.38479086      26.63245919 
H      16.37736463      21.68347502      25.45822558 
H      17.68460444      21.89976785      26.66818204 
C      25.36240985      13.28557814      20.84241167 
H      26.32761966      12.83267826      20.58701747 
H      24.94049587      12.79501721      21.72859596 
H      25.49091974      14.35768555      21.02625033 
C       9.83567295      11.19031727      18.41703208 
H       9.00052119      11.87722919      18.23222495 
H       9.46304228      10.25426978      18.84837890 
H      10.35196450      10.99481183      17.47275311 
H      26.52387350      15.69433938      13.99104515 
H      25.60726913      14.24571378      14.51925270 
H      27.23429401      14.58003948      15.20311928 
H      26.91592371      17.78300900      19.11225273 
H      27.14260109      18.74418550      20.61121977 
H      25.86230709      19.18785301      19.43958495 
H      26.58998498      20.71119446      13.12755969 
H      26.76203913      21.59898974      14.67427530 
H      25.21591733      21.68214412      13.75738250 
H      24.10656124      23.68587210      18.39823103 
H      23.05076665      23.37980671      19.81947748 
H      22.48036599      22.94219967      18.18081240 
H      23.56029808      25.05638233      14.44528781 
H      24.38338962      23.92190448      15.56412083 
H      22.72009581      24.47639557      15.92255766 
H      20.07406473      25.41188230      20.77436207 
H      19.65543676      25.66164006      22.50170677 
H      18.56329115      24.71533873      21.43545951 
H      20.93619284      26.30191132      15.69824842 
H      19.55396272      27.29618096      16.26005345 
H      19.30802721      26.02143336      15.01590420 
H      17.77665630      24.51469104      10.51402435 
H      19.32485444      23.60765505      10.52723095 
H      19.32086476      25.37396214      10.82198655 
H      15.02170590      27.36459833      18.66731834 
H      15.10177426      25.97308562      19.80054540 
H      13.53926360      26.44856570      19.07830204 
H      14.80150110      25.84518600      12.21059891 
H      15.93722318      24.88410387      13.21735120 
H      14.43542988      25.53867959      13.94155291 
H      10.15054626      23.85867592      19.04149924 
H      11.81164985      24.45983100      18.74521226 
H      10.94174413      24.92577321      20.24593406 
H      16.81633937      22.15656732       7.99205565 
H      17.89575982      20.72018639       8.06061207 
H      18.11513542      22.05456577       9.22737596 
H      22.99231173      20.97098357       9.25539202 
H      22.97915987      19.91071561      10.69967918 
H      23.05210439      21.68940973      10.90131079 
H      23.35450305      14.94686577      10.87531219 
H      23.60593058      15.15292426      12.63481541 
H      24.94453031      15.52594934      11.48996660 
H      20.11143166      16.61746540       7.08517281 
H      19.28573748      15.14785294       7.70245291 
H      20.67353048      15.83225227       8.59797444 
H      21.40894545      11.09610518       9.66079299 
H      20.91463094      11.24396765      11.38082434 
H      22.53336642      11.78942843      10.86943233 
H      19.12417424       9.95511893      10.14724862 
H      18.22416079       8.51267526      10.70709198 
H      19.29391201       9.38758544      11.84757706 
H      13.74543139       7.83071771      14.73047786 
H      13.44514737       9.58455232      14.92221394 
H      13.37898200       8.50479106      16.34666138 
H      12.75710989       9.97315679      10.34274013 
H      14.02949857       9.26830372      11.39455115 
H      14.36813275      10.75629218      10.46780749 
H      15.77899652      14.43189212       7.39540900 
H      16.22538296      15.71951478       8.56054966 
H      14.54549855      15.09243008       8.51880275 
H       9.59113997      12.84877385      12.65245480 
H       9.02559487      14.40315216      13.36149805 
H       8.21054934      12.86757265      13.80291457 
H      10.30661012      14.96507480       9.54502961 
H      10.43129352      16.68967898      10.03573572 
H      10.03901956      15.44200974      11.25397304 
H       7.27838165      18.70937940      13.91545365 
H       8.59408653      19.27678968      14.98838954 
H      10.68471939      21.36306262      10.32448654 
H      12.38676025      21.93182284      10.22652308 
H      11.56084960      21.84923210      11.81201308 
H      11.30186873      23.43212672      14.84865610 
H      11.96572946      22.93066435      16.43070697 
H      10.33069623      23.67916935      16.33548049 
H      20.47222985       7.35517391      14.30061835 
H      18.82781514       7.26723815      15.01521562 
H      20.21387624       7.71076649      16.04323812 
H      24.88197167      10.13886757      15.56966855 
H      23.94850511      10.90762251      16.89913716 
H      25.36712390      11.74446841      16.21428245 
H      24.03725246      16.60377262      24.51311798 
H      24.45501849      15.37800813      23.28144485 
H      24.17344902      14.87278351      24.98121318 
H      19.94119985      14.60541225      25.96261444 
H      18.63397284      13.93598435      26.99491741 
H      18.29440797      15.31222555      25.89257125 
H      15.34464607      14.92107546      26.78410185 
H      13.95992306      15.62163965      25.90953284 
H      14.54328973      16.39775963      27.41514440 
H      12.18863073      11.50611572      23.51461405 
H      13.39234689      10.87121116      24.68177943 
H      13.81286255      11.03950851      22.93987316 
H      16.47644175       8.14724605      23.06911279 
H      15.36033317       9.12832565      22.05948958 
H      15.59012337       9.51913492      23.80462083 
H      20.53990364       9.19093037      22.73912705 
H      20.17177688      10.60804166      23.76698932 
H      21.79144820       9.83532101      23.85894308 
H      15.18961865       7.52740618      18.06607772 
H      13.47457318       7.74408399      18.54520824 
H      22.06549501      21.64628509      24.43585963 
H      22.87266049      21.62944108      22.83792234 
H      23.78149072      21.12784701      24.30096362 
H      11.54939256      21.54834374      23.52661930 
H      11.55442938      20.94654506      25.21754396 
H      11.58356213      19.78893168      23.85490499 
H      15.23451416      25.05657053      23.87857044 
H      16.75212609      24.13314358      24.14719041 
H      15.17191291      23.27470173      24.08152724 
H       7.76375771      21.43768076      19.99197237 
H       9.32589340      21.53903282      20.87887269 
H       7.26593183      14.77997870      19.10196727 
H       8.00858876      15.84554365      20.33938063 
H       8.85538899      14.35051597      19.82183041 
H       9.61274155      15.39962213      23.06057459 
H      11.18891279      14.78627087      23.67057782 
H      10.93837110      14.99438170      21.91153734 
H      21.47209970       8.88598452      17.58194831 
H      21.32004600       8.12608674      19.20213747 
H      21.33675115       9.91251203      19.04019498 
H      14.65900275       7.13552363      19.73768853 
H       7.98717115      20.52541208      21.51759971 
H       7.66072516      17.81643662      15.42599781 
