322
Properties=species:S:1:pos:R:3 i=280 optimized=T E=-4244.7401916214 pbc="F F F" jobid=102_44-Ag-19_6-000007-PBE
Ag      16.90788607      16.98337807      15.79379646 
Au      17.73919902      16.94869612      18.66750035 
Au      18.65713202      14.86778199      16.84362252 
Au      15.93297202      14.92582497      17.61289967 
Au      19.56816482      17.69552204      16.57112220 
Au      15.08434219      17.76057012      17.93857547 
Au      17.34438910      19.47896439      17.26918615 
Ag      17.91447479      14.97705532      13.89749065 
Au      16.70421231      14.95837773      20.54966637 
Au      18.29951595      19.47600200      20.12401085 
Au      16.38063225      19.54122586      14.38340253 
Ag      19.48766644      14.89030389      19.80348654 
Au      15.10845924      14.96548025      14.61974092 
Ag      18.73179639      17.85478499      13.59748057 
Au      15.95918185      17.82327513      20.91972333 
Au      20.50882904      17.65909086      19.47074826 
Au      14.17200549      17.74276292      15.05120006 
Au      21.38214624      15.59558485      17.63005079 
Au      13.17252796      15.73742123      16.87539435 
Au      13.98786246      15.71181360      19.77784442 
Au      20.62241386      15.65758769      14.71108973 
Ag      15.53907655      20.31940286      19.42999794 
Au      19.16105152      20.28392553      15.13780413 
Au      20.13339508      20.34778380      17.97254405 
Au      14.58539418      20.35892729      16.58143533 
Ag      17.66856523      12.68015912      18.72490055 
Au      16.87653563      12.72640026      15.65204109 
Au      16.07647423      17.06045867      12.87375084 
Au      18.64725551      16.96736944      21.64283188 
Au      19.70137421      12.90195715      15.06451712 
Au      14.85270865      12.89353392      19.36521148 
Au      13.22243908      18.54447602      20.02866241 
Au      21.41911871      18.47192353      14.50722387 
Ag      20.42306923      12.83399223      17.88006174 
Au      14.11988187      12.94988401      16.55986181 
Au      22.28886504      18.50008737      17.27184219 
Au      12.36734828      18.55249625      17.29480792 
Au      17.81359677      22.05431516      18.64482589 
Au      16.91313151      22.07789889      15.95646712 
Au      20.50255641      19.21504296      21.97378417 
Au      14.14129738      19.31848971      12.57203163 
Au      18.73078516      14.27448388      22.56420890 
Au      15.81328318      14.33126744      11.94469589 
Au      17.30689727      19.34948715      11.59116210 
Au      17.33868640      19.19951069      22.99874312 
Au      18.33421251      16.13994801      11.26994927 
Ag      16.34984651      16.06509456      23.26884224 
Ag      21.47435160      16.25212717      21.74860841 
Ag      13.20933518      16.38679180      12.73818137 
Au      23.24064858      16.42094971      15.50193236 
Ag      11.34451761      16.47734011      19.00954380 
Ag      22.45457425      13.62698051      15.90234501 
Au      12.13500440      13.73664696      18.55647624 
Au      14.99854713      22.80458376      18.07202077 
Ag      19.71490634      22.78472065      16.38620059 
Ag      17.80936305      12.25383902      12.89033605 
Au      16.73616725      12.27644063      21.46583194 
Au      20.23429498      14.06110382      12.46638483 
Au      14.40810431      14.13728504      22.05995711 
Au      21.91914008      21.01861010      15.83944216 
Au      12.80975856      21.07201388      18.68580686 
Au      13.67488909      17.03010746      22.41106586 
Au      20.99714149      16.94318101      12.08645560 
Au      22.36256644      19.84308802      19.83326703 
Au      12.33329330      19.96042316      14.75693789 
Au      20.06780216      21.75089139      20.40403139 
Au      14.60719174      21.83918544      14.18980271 
Au      15.75084790      10.76300657      17.46587269 
Au      18.70288559      10.77770829      16.82129135 
Au      22.14200869      13.98358600      19.91178205 
Au      12.41050212      14.16362330      14.52379833 
Ag      17.16642988      21.69093026      21.47559291 
Au      17.61239960      21.80910020      13.17044632 
Au      19.77016619      12.18889458      20.63043510 
Au      14.80299300      12.19551300      13.79411198 
Au      23.27915033      16.70016539      19.36239803 
Au      11.34449404      16.92196353      15.08856027 
Au      20.15489677      20.24110908      12.54704812 
Au      14.60511125      20.11249969      22.06636804 
Au      20.74351096      23.24300385      13.55341181 
Au      14.08411893      23.08733330      21.07967762 
Au      24.80178260      14.38410792      17.76728419 
Au       9.77023996      14.61017539      16.74938258 
Au      17.59439971      24.89076675      17.43784020 
Au      21.59463521      10.66381432      14.76425200 
Au      12.99949115      10.62185151      19.59515161 
Au      16.23140276       9.63376289      13.67860312 
Au      18.29310823       9.63170881      20.52603376 
Ag      10.56369798      18.29539323      21.18284519 
Ag      24.09519826      18.25994964      13.37756754 
Au      24.60998523      20.31121747      16.94092411 
Au      10.07124076      20.38027309      17.65526540 
Au      23.79437029      18.34258034      22.08898066 
Ag      10.95893962      18.55960575      12.48657015 
S      19.53971530       9.52895483      14.67119230 
S      15.03244741       9.44902220      19.54447766 
Au      14.81841814      18.64063180      24.86757156 
Ag      19.88055268      18.73841946       9.92595831 
Au      18.37732126      13.19214443      10.01461926 
Ag      16.21426163      13.11994317      24.34142816 
Au      19.40296138      21.96725092      23.47159766 
Au      15.41807840      22.15197215      11.13584968 
S      18.65407699      24.00234923      12.77717246 
S      16.13061424      23.92170441      21.88742284 
S      24.24290106      12.77588495      19.40183544 
S      10.31980197      13.02767144      15.07605376 
Au      12.64999593      13.48462605      11.58671502 
Au      21.93235319      13.24236371      22.82139477 
S       8.95928546      16.11754113      18.37182437 
S      25.54738339      15.91589300      16.13339193 
S      11.33746304      17.09013358      23.15847286 
S      23.31705795      17.15981580      11.33241488 
S      22.90630164      22.62970035      14.24766203 
S      11.88101183      22.54631138      20.42820440 
S      22.31713420      19.30714300      23.65506981 
S      12.44154580      19.48094183      10.81530804 
S      19.10776962       8.89372614      18.45870934 
S      15.42388384       8.88561700      15.74605962 
S      16.03247312      13.29167374       9.73541702 
S      18.61084324      13.15360557      24.73489327 
S      18.49156724      20.30351615      24.86773735 
S      16.28234817      20.51274185       9.67372750 
S      24.27013924      21.21969327      19.12004641 
S      10.41143884      21.30192014      15.48164968 
S      15.24866489      25.16379819      17.49916362 
S      19.94458140      25.07866727      17.33586350 
S      17.04068916      10.23200099      11.54794671 
S      17.46997734      10.25147539      22.65869001 
S      15.95660563      16.74593781      25.67191116 
S      18.62070540      16.93525613       8.93666426 
S      22.21405739      15.28124499      23.93952383 
S      12.41225756      15.55644682      10.50988589 
S      23.66111773      11.80028395      14.70244716 
S      11.00760234      11.88804564      19.70493324 
S      13.77313328      13.09416300      24.15197569 
S      20.73539254      13.11273629      10.27787167 
S      21.65236158      11.09389649      21.88036579 
S      12.87601029      11.32089393      12.50349740 
S      20.70423890      23.39801359      22.08729052 
S      14.08658931      23.54758076      12.53270464 
S      25.25193854      17.01635650      20.77574768 
S       9.36386192      17.19543443      13.70370798 
S      13.90361021      20.76822750      24.32940785 
S      20.88843646      20.92409459      10.33108254 
S      25.57173102      19.40426379      14.96308319 
S       9.09424272      19.48512239      19.63230044 
C      19.00281093      14.41223315      26.00945247 
C      15.67718374      14.59333596       8.49661308 
C      23.53221524      22.87712149      18.87134772 
C      11.12622845      22.96834977      15.74250717 
C      20.93285487       8.88441851      18.65518022 
C      13.60042282       8.86330380      15.53479320 
C      10.72419012      15.37351477      22.94749039 
C      23.96943298      15.44722525      11.43543413 
C       8.20224880      15.06313784      19.67076212 
C      26.27948700      14.88978037      14.80049668 
C      22.91016244      21.03373922      23.82468085 
C      11.91237234      21.23153605      10.65969292 
C      14.94953538      26.22116578      18.96977788 
C      20.19964512      26.29598166      15.98052170 
C      24.02028723      15.44136653      24.22779292 
C      10.60692263      15.77132534      10.25198740 
C      19.87828366      15.92451922       8.06194073 
C      14.63709750      15.74091035      26.45680549 
C      19.74953723      24.91368831      21.69763372 
C      15.05140910      25.02692308      13.02247505 
C      21.20435057      11.36818890      10.59569357 
C      13.23666239      11.40703960      23.66599378 
C      24.71069044      10.95476408      15.95259387 
C      19.88014324       7.77579193      15.09024224 
C      14.66220560       7.72472255      19.04382026 
C      26.40173423      18.11230222      19.86330197 
C       8.20347220      18.25713177      14.64812374 
C      18.90339647      24.22713689      10.97492974 
C      15.85764992      24.13678293      23.68908896 
C      23.55077868      24.05238057      15.20899465 
C      11.25192959      24.04666959      19.57857035 
C      17.54676883      21.31443082       8.61815241 
C      20.99670997      10.10292013      23.27639840 
C      13.47853731      10.31310328      11.09595808 
C      12.07594278      20.63989698      24.37582315 
C      22.71738736      20.78162372      10.30696003 
C       9.13231037      13.34368493      13.71743727 
C      18.37705358       9.03025070      11.18726112 
C      16.08550738       9.10942642      23.02508941 
C       8.57190008      20.97307046      20.56752982 
C      26.16306710      20.88381940      14.05571050 
C      17.29801004      21.12665643      25.98858692 
H      16.78558084      20.33570043      26.55065149 
H      16.55823481      21.71678397      25.44128924 
H      17.86461185      21.76943633      26.67215671 
C      25.41171467      13.07035500      20.78296276 
H      26.38460137      12.64429611      20.51155466 
H      25.00713987      12.55476130      21.66300248 
H      25.51721283      14.14071388      20.99044456 
C       9.90096490      11.12540193      18.45321111 
H       9.06502766      11.81579064      18.28595996 
H       9.53101186      10.17664842      18.85821381 
H      10.41945790      10.95796281      17.50479602 
H      26.49155509      15.55473628      13.95408487 
H      25.59705331      14.09152670      14.48772640 
H      27.21612582      14.45957884      15.17362456 
H      26.85551958      17.51748945      19.06181722 
H      27.17402122      18.45432379      20.56172936 
H      25.88352451      18.97296608      19.42960619 
H      26.65301146      20.53741467      13.13792053 
H      26.89278919      21.41190652      14.68004909 
H      25.33124190      21.55097123      13.80035823 
H      24.29367279      23.53210333      18.43331421 
H      23.23264453      23.25669092      19.85549459 
H      22.65212155      22.82269577      18.21915151 
H      23.73439889      24.88655923      14.52224124 
H      24.49482400      23.73696430      15.67064515 
H      22.84319810      24.35317650      15.98869636 
H      20.18484630      25.35559578      20.79336385 
H      19.85622904      25.60552578      22.54126459 
H      18.69129284      24.69032904      21.52380119 
H      21.27809529      26.35651462      15.79042818 
H      19.83056001      27.27452847      16.30631849 
H      19.69022965      25.98593412      15.06276610 
H      17.91260010      24.26582135      10.50512580 
H      19.49038837      23.40186354      10.55559618 
H      19.42957363      25.17596150      10.81719230 
H      15.31105958      27.23013194      18.74040299 
H      15.45496254      25.82778962      19.85754403 
H      13.86794239      26.24703085      19.14796608 
H      15.00804180      25.74686932      12.19679395 
H      16.09310696      24.77304374      13.24580737 
H      14.57683266      25.45365369      13.91397035 
H      10.29259247      23.78745681      19.11344807 
H      11.95286124      24.38475062      18.80879670 
H      11.10059150      24.83604390      20.32383445 
H      17.04004460      22.03256128       7.96314475 
H      18.01139344      20.52402864       8.01512819 
H      18.31693587      21.81963824       9.20688829 
H      23.05171202      21.04860103       9.29703403 
H      23.04840095      19.76442400      10.53896186 
H      23.13626395      21.48650116      11.03403579 
H      23.47210547      14.84300623      10.66774810 
H      23.77730185      15.00956980      12.42124332 
H      25.04791463      15.47988128      11.24150610 
H      20.16925889      16.46104550       7.15127891 
H      19.42583524      14.95972947       7.79975336 
H      20.76042167      15.74891474       8.68518350 
H      21.08454549      10.79856712       9.66709819 
H      20.59641507      10.93029326      11.39302098 
H      22.25737068      11.36411680      10.90111243 
H      18.87470815       9.36104956      10.26803882 
H      17.92819433       8.04413282      11.02355775 
H      19.09772074       8.98223916      12.01116148 
H      13.33149985       8.00323416      14.91060143 
H      13.24366632       9.78794565      15.06801846 
H      13.13996990       8.76226023      16.52550002 
H      12.62199624      10.10740365      10.44368886 
H      13.88087207       9.37753335      11.50301443 
H      14.26524379      10.82980370      10.53683763 
H      15.86672328      14.16780938       7.50414071 
H      16.30541853      15.47799597       8.65189086 
H      14.61733509      14.85932648       8.59506646 
H       9.51508589      12.83449299      12.82427137 
H       9.02752603      14.41797393      13.52705070 
H       8.16309392      12.91913567      14.00453957 
H      10.27517483      15.06180523       9.48591817 
H      10.45109814      16.79877691       9.89918724 
H      10.04143337      15.61572375      11.17523661 
H       7.33670879      18.44801985      14.00405253 
H       8.66228658      19.20836084      14.93374065 
H      10.95156491      21.24709710      10.13202418 
H      12.66925255      21.76749511      10.07298919 
H      11.80466392      21.71220912      11.63678971 
H      11.40945938      23.36400017      14.75987276 
H      12.01370704      22.91774436      16.38542780 
H      10.35882525      23.60521931      16.19678386 
H      20.60750468       7.36419901      14.38236337 
H      18.92576683       7.24264026      14.99494965 
H      20.24760926       7.66389671      16.11513703 
H      25.02591845       9.98666888      15.54810049 
H      24.18346509      10.81417545      16.90064942 
H      25.58835982      11.58865304      16.12907509 
H      24.20194823      16.45993345      24.59239769 
H      24.59411917      15.28139617      23.31073349 
H      24.31856504      14.71203268      24.98906008 
H      20.05569267      14.69711882      25.89432368 
H      18.84760334      13.94725568      26.99041677 
H      18.36343317      15.29678295      25.91502304 
H      15.07893177      14.77901891      26.74664981 
H      13.80390013      15.56200403      25.77068692 
H      14.28060978      16.26740011      27.34892900 
H      12.19066439      11.46380599      23.34304060 
H      13.31634983      10.75089754      24.54053940 
H      13.84276159      11.01560708      22.84306331 
H      16.51121338       8.11711295      23.21468068 
H      15.38173645       9.06333445      22.18692645 
H      15.58439131       9.47310750      23.92960954 
H      20.54330981       9.19543410      22.85961344 
H      20.24357223      10.65938614      23.84440980 
H      21.83978459       9.84059746      23.92614461 
H      15.62543638       7.23175357      18.86417166 
H      14.05945594       7.67713157      18.13268657 
H      22.18461351      21.57306942      24.44676836 
H      22.99738827      21.52744704      22.85210235 
H      23.88669922      21.00966034      24.32168940 
H      11.66842545      21.43956483      23.74629179 
H      11.75355313      20.77932348      25.41443736 
H      11.73107630      19.66637621      24.01343190 
H      15.29071043      25.06008022      23.85398284 
H      16.84196685      24.21553228      24.16710887 
H      15.30744416      23.28653796      24.10735747 
H       7.86086723      21.54089380      19.95671262 
H       9.43292638      21.60000739      20.82874590 
H       7.28395706      14.61509550      19.27481936 
H       7.95388958      15.71636624      20.51664251 
H       8.88886311      14.27697927      20.00243073 
H       9.64080415      15.37478712      23.11356091 
H      11.21875910      14.74183614      23.69509113 
H      10.95201075      14.98830466      21.94713139 
H      21.38348639       8.85265112      17.65494205 
H      21.21544627       7.98942624      19.22173672 
H      21.28074894       9.77989033      19.18222398 
H      14.13527233       7.22552139      19.86482956 
H       8.07302517      20.63182680      21.48255471 
H       7.88870798      17.71489111      15.54724120 
