322
Properties=species:S:1:pos:R:3 i=198 optimized=T E=-4286.340092475 pbc="F F F" jobid=102_44-Ag-30_4-000004-PBE
Au      16.84052858      17.03774383      15.84446617 
Au      17.72596483      16.96399731      18.70339022 
Au      18.61108335      14.94758908      16.82449329 
Ag      15.88314710      14.94940495      17.65528155 
Au      19.55749793      17.77612243      16.54846515 
Au      15.00372483      17.73597859      17.95852258 
Au      17.34337165      19.50907234      17.31041119 
Au      17.87684811      15.06236056      13.89760321 
Au      16.71555841      14.96987350      20.60530964 
Au      18.31014156      19.51512320      20.13594895 
Au      16.32536437      19.57344891      14.38219123 
Ag      19.48027757      14.92442276      19.81810584 
Au      15.05955548      15.01060575      14.67152179 
Au      18.65404490      17.94383511      13.64549207 
Au      15.96779207      17.83438313      20.88736026 
Ag      20.45542595      17.71029552      19.43166961 
Au      14.08068018      17.77569644      15.06444815 
Au      21.38183045      15.69040967      17.60815478 
Ag      13.13169788      15.74164319      16.89443208 
Ag      13.97710128      15.69877556      19.78809895 
Au      20.61808008      15.76141597      14.68210677 
Au      15.53409426      20.33076528      19.43380539 
Ag      19.14553352      20.35924955      15.13624378 
Ag      20.10215854      20.34616009      17.96958605 
Au      14.51342062      20.34101101      16.61555952 
Au      17.63465594      12.78060644      18.70693618 
Au      16.84967940      12.76448905      15.67974947 
Au      15.95123225      17.14322850      12.85047308 
Ag      18.64175591      16.98327639      21.62521843 
Au      19.67886639      12.97051318      15.03091387 
Ag      14.84933779      12.93566123      19.40292541 
Au      13.16278273      18.48447245      20.03314356 
Ag      21.44286922      18.56636604      14.47154582 
Au      20.39385191      12.94095299      17.85407395 
Au      14.06997036      13.02858548      16.60238820 
Au      22.23321491      18.55476233      17.24753579 
Ag      12.31738913      18.58092321      17.32023034 
Ag      17.85404492      22.07406979      18.61253593 
Au      16.89912558      22.02896576      15.92298036 
Au      20.49885720      19.19229647      21.93868381 
Ag      14.05389623      19.41569652      12.57100220 
Ag      18.82755598      14.23835734      22.55900027 
Au      15.71099781      14.37157330      11.97183444 
Ag      17.29723666      19.32510568      11.52327082 
Au      17.38818441      19.28062533      22.92996938 
Au      18.22113342      16.20089140      11.26296550 
Au      16.38838335      16.09944578      23.24984589 
Ag      21.45569143      16.28682692      21.69798683 
Au      13.14701350      16.47457459      12.72295105 
Au      23.21496281      16.40564989      15.46826794 
Au      11.32487628      16.50538711      19.00940031 
Ag      22.41196331      13.65955726      15.87940984 
Au      12.14459413      13.72141570      18.62252955 
Au      15.05702713      22.80354223      18.07691519 
Au      19.66346718      22.82775458      16.43468926 
Ag      17.79055415      12.39300996      12.86485991 
Au      16.84640868      12.28415322      21.46740602 
Au      20.18078416      14.18878780      12.41452095 
Au      14.46946380      14.05985814      22.04478067 
Au      21.86756797      21.06139712      15.84331750 
Au      12.82096311      21.10294764      18.81021762 
Au      13.73388459      16.98053349      22.40843583 
Au      20.86923767      17.14964114      12.06967977 
Ag      22.37540243      19.84710941      19.83115925 
Au      12.22912307      19.97060974      14.84484027 
Au      20.07748574      21.72554203      20.42445045 
Au      14.53684547      21.82821606      14.24810970 
Au      15.78015543      10.84849521      17.49738429 
Ag      18.72863894      10.77444699      16.89065869 
Au      22.13190814      14.07653373      19.91233814 
Ag      12.35954029      14.20950637      14.49634076 
Au      17.11936625      21.78927588      21.39390884 
Ag      17.48523029      21.80354406      13.09687134 
Ag      19.74430672      12.11179080      20.56119400 
Au      14.74747072      12.24498037      13.85238094 
Au      23.24380246      16.80808468      19.34162771 
Au      11.33800463      16.98325454      15.08842420 
Au      19.99487119      20.20305031      12.48470444 
Au      14.54801123      20.10660710      22.05436083 
Au      20.60080346      23.18323330      13.49448223 
Ag      14.10932035      22.93398337      20.99702444 
Au      24.77894748      14.44159780      17.77252473 
Ag      10.00195906      14.68880610      16.62983210 
Ag      17.34978185      24.78005765      17.24903005 
Au      21.43105439      10.66231367      14.76086637 
Ag      12.80041718      10.86924177      19.58127387 
Ag      16.46052085       9.85765571      13.83609020 
Au      18.33769229       9.54610017      20.57317993 
Au      10.46169686      18.26837949      21.27871550 
Au      24.14504496      18.28883457      13.31778982 
Au      24.55474298      20.34559343      16.87081511 
Ag      10.14545738      20.44465065      17.81177575 
Au      23.78182205      18.36239244      22.11109701 
Au      10.74497837      18.62319211      12.48938107 
S      19.37927419       9.50869140      14.70209144 
S      14.86653753       9.66827314      19.56395179 
Ag      14.88901202      18.68662716      24.68232184 
Au      19.79274240      18.91080853       9.65996307 
Au      18.31838280      13.31221844       9.98596107 
Ag      16.20935393      13.17113203      24.34661823 
Au      19.37324088      22.02933747      23.43747532 
Au      15.20574634      22.09565971      11.17065566 
S      18.53920022      24.04331473      12.75306988 
S      16.14892403      23.97408676      21.84623288 
S      24.20017160      12.82786995      19.39283628 
S      10.31007749      12.91922049      15.01077899 
Au      12.61836201      13.36417736      11.63795746 
Au      21.81731685      13.30956570      22.80254049 
S       9.01622900      16.21234645      18.24505655 
S      25.52725717      16.01045495      16.17706742 
S      11.39755800      17.08911689      23.12072511 
S      23.23202192      17.20643752      11.41428288 
S      22.80077548      22.59642501      14.11643565 
S      11.75160338      22.65718398      20.37387489 
S      22.28809372      19.32386949      23.65463721 
S      12.16251999      19.64047231      10.91351494 
S      19.17993966       8.82695461      18.52104905 
S      15.62199582       8.90452691      15.86495281 
S      15.96625154      13.39352088       9.73724047 
S      18.58321433      13.10507676      24.78034642 
S      18.48297189      20.35828181      24.85102588 
S      16.09919816      20.51871051       9.67670319 
S      24.28133338      21.29832655      19.02596516 
S      10.35163855      21.38014840      15.56248483 
S      14.95405934      25.14177304      17.43836919 
S      19.74635198      25.16088926      17.19022288 
S      17.05918259      10.38553182      11.55686508 
S      17.49426360      10.24057936      22.66776320 
S      16.20313629      16.86520068      25.58138636 
S      18.53707709      17.05702892       8.94513431 
S      22.07521148      15.34687541      23.95709428 
S      12.34714482      15.46950742      10.63138271 
S      23.52371368      11.75854585      14.71032236 
S      10.72767621      12.08290395      19.78839759 
S      13.75048382      13.17329836      24.19068164 
S      20.68817779      13.26887453      10.21897516 
S      21.68368777      11.15118553      21.86608856 
S      12.88667950      11.22466546      12.59068057 
S      20.73111344      23.43622238      22.06978763 
S      13.92713973      23.51226545      12.59617443 
S      25.23005662      17.08742442      20.75029543 
S       9.27408131      17.27350669      13.79003527 
S      13.85242796      20.86559654      24.25629119 
S      20.75880753      20.98921915      10.26349684 
S      25.52446774      19.41388080      14.89456946 
S       9.05837066      19.45127342      19.77183550 
C      18.98856930      14.33126236      26.08207969 
C      15.57122856      14.71208347       8.52791875 
C      23.52008917      22.94798007      18.78167075 
C      11.09297219      23.04627722      15.75873952 
C      21.00520850       8.79849890      18.72263821 
C      13.81612022       8.73027686      15.58882156 
C      10.75522684      15.38113353      22.95093784 
C      23.79169032      15.46913479      11.57901393 
C       8.18842684      15.18725059      19.52014113 
C      26.30639793      15.02146878      14.84246596 
C      22.87169327      21.05303788      23.83746818 
C      11.56863773      21.37293924      10.81303564 
C      14.79273348      26.20401615      18.93111333 
C      19.97493618      26.27548116      15.74527659 
C      23.87689435      15.47132917      24.29287245 
C      10.53900860      15.68606957      10.40879512 
C      19.74108557      16.02458530       8.02528799 
C      14.99856651      15.81062692      26.47979493 
C      19.78706020      24.94246359      21.62465942 
C      14.90916173      25.00316864      13.01406611 
C      21.19883485      11.53573072      10.53218612 
C      13.16384885      11.47180765      23.82933202 
C      24.51918734      10.90393762      15.99847901 
C      19.75084153       7.75837086      15.10883205 
C      14.46786621       7.93794638      19.08088746 
C      26.38556720      18.22389868      19.89417816 
C       8.16210225      18.37197108      14.74782102 
C      18.78095296      24.34364114      10.95889884 
C      15.90308532      24.14326532      23.65565205 
C      23.44552153      24.06065147      15.01550866 
C      11.30893258      24.17984808      19.44854574 
C      17.26337184      21.42112010       8.58302977 
C      21.06049987      10.12185651      23.25262796 
C      13.53921919      10.20977855      11.21025371 
C      12.02650005      20.69872114      24.32624604 
C      22.58321376      20.81765988      10.24547411 
C       9.08827933      13.26395479      13.68320122 
C      18.42243679       9.22635078      11.15399496 
C      16.04447827       9.17324753      23.00493526 
C       8.52135363      20.92467975      20.72172856 
C      26.08391664      20.89884243      13.97818894 
C      17.26143030      21.16251432      25.95527893 
H      16.78899361      20.36882705      26.54798753 
H      16.49421157      21.70489281      25.39640671 
H      17.80157203      21.84901452      26.61757289 
C      25.36995078      13.10406112      20.77738180 
H      26.34131811      12.67745891      20.50144834 
H      24.96254883      12.57812019      21.64990232 
H      25.47993263      14.17114592      20.99807479 
C       9.60760924      11.35751734      18.52299423 
H       8.77448884      12.05273058      18.36247124 
H       9.22475215      10.40780510      18.91405472 
H      10.11716210      11.19484032      17.56868536 
H      26.50610803      15.70319556      14.00631951 
H      25.65114386      14.20767952      14.51347609 
H      27.25083403      14.61401475      15.22114810 
H      26.77753221      17.69619451      19.01681531 
H      27.20135218      18.45922257      20.58754364 
H      25.89003171      19.14673689      19.57869098 
H      26.59559912      20.56171305      13.06936970 
H      26.78925281      21.44247574      14.61757213 
H      25.23561873      21.54188197      13.71487647 
H      24.24380274      23.60649554      18.28941388 
H      23.27495203      23.34187189      19.77541308 
H      22.60061039      22.87925896      18.18724991 
H      23.58716439      24.88006614      14.30159915 
H      24.41149994      23.78110595      15.45436410 
H      22.75749157      24.36734214      15.81028433 
H      20.21123444      25.34275958      20.69612642 
H      19.91295226      25.66989336      22.43533987 
H      18.72278378      24.72083396      21.48301742 
H      21.04181868      26.30171931      15.49429641 
H      19.64153709      27.27890321      16.03428100 
H      19.41029766      25.92822427      14.87403683 
H      17.78900816      24.44501451      10.50166280 
H      19.32347424      23.51464961      10.49128781 
H      19.34557453      25.27381101      10.82833196 
H      15.09059155      27.22122072      18.65109129 
H      15.41796670      25.84531832      19.75477973 
H      13.74310945      26.20398730      19.24770424 
H      14.82037672      25.70999958      12.18079493 
H      15.96263061      24.75872823      13.18867844 
H      14.47619740      25.44117539      13.92128184 
H      10.34203625      24.02048536      18.95598422 
H      12.06630889      24.42201794      18.69522789 
H      11.21944939      25.00411977      20.16616507 
H      16.68911214      22.10675695       7.95015800 
H      17.76432617      20.66859542       7.96135645 
H      18.01729147      21.97363292       9.15016740 
H      22.92764211      20.94690747       9.21283907 
H      22.90216573      19.84087712      10.62169573 
H      22.99438024      21.61091644      10.88122826 
H      23.29465989      14.88891633      10.79243379 
H      23.51920534      15.06191349      12.55985429 
H      24.87821354      15.44073647      11.44013024 
H      20.01170232      16.55757823       7.10670333 
H      19.24540955      15.07596169       7.78198653 
H      20.63598541      15.82113393       8.62053320 
H      21.07273601      10.95979392       9.60839579 
H      20.61568610      11.08932858      11.34299787 
H      22.25764345      11.55458995      10.81632177 
H      18.90837603       9.57532340      10.23589047 
H      17.99054162       8.23406843      10.98001060 
H      19.15093892       9.17074312      11.97059517 
H      13.65445090       7.89750598      14.89410447 
H      13.38534883       9.64563956      15.16902802 
H      13.33143570       8.50369300      16.54544239 
H      12.69341847       9.95675216      10.56048542 
H      13.97329292       9.29833512      11.63842360 
H      14.30986337      10.74076530      10.64307745 
H      15.79717334      14.32682644       7.52670971 
H      16.14844722      15.62300857       8.71895632 
H      14.49853632      14.92510499       8.61437461 
H       9.45148429      12.80168551      12.75709320 
H       8.95413443      14.34056895      13.53011918 
H       8.12903874      12.81538774      13.96692338 
H      10.21469204      15.00891081       9.61021618 
H      10.36852610      16.72911430      10.11451662 
H       9.98888527      15.47187379      11.32925338 
H       7.28914172      18.58957230      14.12099609 
H       8.65908647      19.30800046      15.02044107 
H      10.57806380      21.37630543      10.34503466 
H      12.27915698      21.92636304      10.18635344 
H      11.51564158      21.84051069      11.80083014 
H      11.37183381      23.41578976      14.76514459 
H      11.98433689      23.01055321      16.39559453 
H      10.33845944      23.70669782      16.20135494 
H      20.44008005       7.34464540      14.36538402 
H      18.79478735       7.22125152      15.07015564 
H      20.16981445       7.65674524      16.11467843 
H      24.81846570       9.92175025      15.61651314 
H      23.96279812      10.79132971      16.93365356 
H      25.40857742      11.51686279      16.18897039 
H      24.06560346      16.47988930      24.68108388 
H      24.46990271      15.31878050      23.38643210 
H      24.14726804      14.72424383      25.04732430 
H      20.05369212      14.57902621      25.99590576 
H      18.79202683      13.87217355      27.05787218 
H      18.39148459      15.24479844      25.97581054 
H      15.49276133      14.86637664      26.74352423 
H      14.11331097      15.59511173      25.87424511 
H      14.70306147      16.33901844      27.39369706 
H      12.11167389      11.53133635      23.52681768 
H      13.24966721      10.87030636      24.74185484 
H      13.74340508      11.01296119      23.02268088 
H      16.41269650       8.15751032      23.19061242 
H      15.35159750       9.17549654      22.15596875 
H      15.55223936       9.55596627      23.90648091 
H      20.65615624       9.19707938      22.82342137 
H      20.27187358      10.63613771      23.81226863 
H      21.90248310       9.89309429      23.91552582 
H      14.65649711       7.30292811      19.95494700 
H      15.13469507       7.64458756      18.25951616 
H      22.13194773      21.58581967      24.44848177 
H      22.97291096      21.55369934      22.86967755 
H      23.83970620      21.03196613      24.35093119 
H      11.58187633      21.43862529      23.65099915 
H      11.71750927      20.90389332      25.35825915 
H      11.69762402      19.69508465      24.03980338 
H      15.39625665      25.09899821      23.83662026 
H      16.88498539      24.14681364      24.14453815 
H      15.28907176      23.32465278      24.04894331 
H       7.77285008      21.45405900      20.11952668 
H       9.36895872      21.58917113      20.93120477 
H       7.24932863      14.80773365      19.10033176 
H       7.97128031      15.83019305      20.38228775 
H       8.82214669      14.34932007      19.83419820 
H       9.68103421      15.39859290      23.16734602 
H      11.28310658      14.75702350      23.68244630 
H      10.93452748      14.99074096      21.94295400 
H      21.45027138       8.72508752      17.72186120 
H      21.28564746       7.92097876      19.31607315 
H      21.37171479       9.70780676      19.21194037 
H      13.42532913       7.82590850      18.77085497 
H       8.06218847      20.59017687      21.65867271 
H       7.85182919      17.83513245      15.65205358 
