322
Properties=species:S:1:pos:R:3 i=279 optimized=T E=-4324.1403051461 pbc="F F F" jobid=102_44-Ag-40_2-000003-PBE
Ag      16.77422705      17.05502506      15.84734644 
Au      17.61053780      17.01397044      18.70348487 
Au      18.55110908      14.99233430      16.82579535 
Au      15.81391604      14.92825053      17.67740799 
Au      19.44736532      17.76306832      16.61957542 
Ag      14.95751235      17.75832970      17.97802651 
Au      17.18417210      19.56290203      17.37607021 
Au      17.82411490      15.09686559      13.89841224 
Au      16.59559023      14.96240264      20.56918513 
Ag      18.13731478      19.52243808      20.20926550 
Au      16.24366772      19.61187983      14.49873181 
Au      19.41688318      14.97078841      19.84795809 
Ag      15.03976702      15.01535729      14.69929428 
Ag      18.55631130      17.95770693      13.67145754 
Ag      15.82468950      17.80121064      20.89589101 
Ag      20.36524852      17.70934858      19.51138504 
Au      14.05178273      17.78798435      15.06964388 
Ag      21.33167427      15.72715951      17.64916326 
Au      13.13659753      15.69185983      16.90080034 
Ag      13.87621045      15.67607592      19.79958757 
Ag      20.53281992      15.76067226      14.76700347 
Ag      15.35153137      20.29965668      19.48475412 
Au      19.02057166      20.36524450      15.25188763 
Au      19.96089773      20.36286339      18.10029483 
Au      14.43580810      20.40265489      16.63508055 
Ag      17.59406501      12.75417856      18.71042311 
Au      16.81791501      12.84210025      15.68120982 
Ag      15.91584423      17.12370375      12.92236670 
Au      18.49525238      17.02533344      21.65063534 
Au      19.66503557      13.00266995      15.06703417 
Ag      14.76083707      12.90905854      19.40543104 
Au      13.10057674      18.43587905      20.07897866 
Au      21.32327307      18.53665861      14.57523987 
Au      20.35136199      12.99281037      17.88715966 
Ag      14.07223886      12.95707563      16.58466752 
Au      22.13974939      18.52747544      17.34006762 
Au      12.29853555      18.55370135      17.31360424 
Ag      17.63007525      22.09643977      18.78057665 
Ag      16.71066693      22.16032021      16.10640794 
Au      20.41773187      19.14644518      22.03924996 
Ag      14.04719567      19.43052399      12.62826247 
Ag      18.70976032      14.27281248      22.58183361 
Au      15.73504675      14.37320337      11.99646735 
Au      17.02376881      19.51369418      11.71616772 
Au      17.25455643      19.25121441      23.00992912 
Au      18.19090003      16.23422079      11.31168903 
Au      16.27343805      16.06561360      23.24518677 
Ag      21.30410429      16.24966939      21.80688758 
Au      13.09556515      16.48245592      12.79291653 
Ag      23.19437379      16.51953813      15.58349636 
Ag      11.24314170      16.47254032      18.95795634 
Au      22.38142964      13.76303168      15.92021824 
Ag      12.04416541      13.67985649      18.52353918 
Ag      14.79207553      22.80664112      18.23291384 
Au      19.50434091      22.79098747      16.62943360 
Ag      17.76060500      12.33726138      12.92414966 
Au      16.74582927      12.29118853      21.45585016 
Au      20.10426467      14.14015358      12.47589062 
Au      14.38564158      14.11324943      22.09019781 
Au      21.75814863      21.10046775      15.91235620 
Au      12.62487582      21.01998264      18.73255310 
Ag      13.58790705      16.98066987      22.51216648 
Au      20.80103160      17.05819970      12.15993626 
Au      22.20663491      19.87868817      19.89664685 
Ag      12.13962168      19.98183168      14.81182221 
Au      19.93729473      21.73527853      20.52433953 
Au      14.46855479      21.88568414      14.26282777 
Ag      15.77425343      10.75898713      17.37526194 
Au      18.68226406      10.85848680      16.81367371 
Ag      22.07760434      14.11300358      19.95955915 
Ag      12.36128869      14.18884536      14.48944895 
Au      16.87065287      21.69024590      21.50509438 
Au      17.46274623      21.90931797      13.32639015 
Au      19.73999321      12.24241246      20.63899058 
Au      14.74900423      12.24003927      13.87359529 
Ag      23.17477886      16.85752264      19.48555639 
Au      11.25654514      16.86217702      15.20816568 
Au      19.97755289      20.25767937      12.63286332 
Au      14.42012603      19.98036665      22.11619950 
Ag      20.41657414      23.05873158      13.73586049 
Au      13.79897192      23.09594240      21.13875741 
Au      24.65864930      14.53187085      17.87808260 
Au       9.75287152      14.43770776      16.71862750 
Au      17.05357150      24.92935171      17.44483417 
Au      21.51176451      10.74261715      14.72402891 
Au      13.02333252      10.62308572      19.52779298 
Au      16.15369583       9.66796830      13.63490941 
Ag      18.07563870       9.78459781      20.45409432 
Ag      10.35577183      18.19299231      21.14761455 
Au      24.06388336      18.35158578      13.44111586 
Au      24.45107567      20.33051702      17.00981178 
Ag       9.97594703      20.32938927      17.61439128 
Ag      23.57761974      18.40745002      22.13869350 
Au      10.75870149      18.60703831      12.51084858 
S      19.45607996       9.61910591      14.62147254 
S      15.07982229       9.48056749      19.50724635 
Au      14.65806556      18.64880614      24.91731446 
Ag      19.63272677      18.89359432      10.00007170 
Au      18.32617408      13.32404528      10.00439753 
Ag      16.13954599      13.06982931      24.33255123 
Ag      19.14440156      21.88078783      23.44857915 
Ag      15.20782757      22.15551703      11.32055972 
S      18.37418846      24.12027851      12.89339901 
S      15.86050180      23.90264728      21.95013040 
S      24.14826663      12.85685372      19.46356190 
S      10.34492741      12.83923416      15.08851337 
Au      12.64726916      13.48379316      11.60893186 
Ag      21.67433051      13.31085615      22.85444895 
S       8.89169767      15.93006387      18.32496919 
S      25.53884377      16.10332470      16.35570193 
S      11.15520862      17.02848975      23.10750443 
S      23.18262656      17.25079624      11.53289924 
S      22.75748383      22.69016416      14.32892454 
S      11.63206998      22.49116713      20.44462196 
S      22.13016787      19.39856258      23.80166802 
S      12.16749885      19.70932208      10.98364912 
S      18.96941554       8.93705894      18.40166521 
S      15.32742728       8.85672746      15.66744551 
S      15.97369288      13.34847048       9.75377289 
S      18.52312960      13.15388058      24.79538290 
S      18.33109374      20.22155083      25.00201130 
S      16.02681541      20.52716666       9.71781175 
S      24.16102648      21.21194460      19.20098146 
S      10.19582406      21.41620252      15.44877100 
S      14.71590456      25.19341137      17.52255488 
S      19.40914714      25.10468428      17.35663181 
S      16.98797354      10.36505859      11.54380714 
S      17.34945057      10.28139002      22.72839007 
S      15.91859133      16.78487005      25.58909617 
S      18.31335902      17.13327817       9.01479865 
S      22.06158018      15.37089413      24.01590299 
S      12.43251118      15.59186856      10.59380209 
S      23.55521776      11.93471105      14.73028442 
S      10.97800135      11.78051440      19.73975973 
S      13.67082427      13.07872715      24.16561890 
S      20.69555801      13.32099265      10.24666980 
S      21.52174515      11.09728434      21.89045267 
S      12.81388491      11.34666840      12.57177169 
S      20.50595498      23.44378021      22.15690222 
S      13.78807890      23.60379490      12.69193550 
S      25.17120611      17.03506105      20.95746701 
S       9.31898427      17.20799607      13.77452397 
S      13.66188029      20.72082478      24.35261436 
S      20.69237048      21.05134123      10.44979800 
S      25.45159975      19.45097074      15.02856427 
S       8.91748136      19.34901241      19.57646164 
C      18.87588643      14.41431512      26.08240792 
C      15.57141766      14.63539687       8.51516616 
C      23.45447822      22.89002613      18.99140850 
C      10.94487875      23.06111417      15.77207608 
C      20.79000184       8.90663949      18.64177975 
C      13.50403788       8.79006658      15.46021549 
C      10.56098647      15.29909132      22.94282896 
C      23.82593498      15.53724768      11.63409574 
C       8.14864910      14.87841658      19.63360357 
C      26.35288688      15.09634025      15.05385632 
C      22.68892772      21.14380098      23.90882581 
C      11.53388125      21.43049756      10.93228626 
C      14.45609860      26.29936897      18.96842989 
C      19.70603482      26.22257689      15.92836507 
C      23.88213983      15.48147902      24.24577404 
C      10.63451642      15.80252301      10.29160945 
C      19.50666363      16.13128907       8.04371181 
C      14.72194410      15.68531692      26.43784774 
C      19.51913314      24.92154462      21.69977786 
C      14.72704320      25.09949473      13.18803307 
C      21.21420095      11.57873342      10.49619572 
C      13.04215991      11.42700428      23.67183269 
C      24.58597496      11.09627845      15.99811927 
C      19.77181810       7.86494573      15.05337575 
C      14.71186852       7.74255745      19.04617048 
C      26.36129215      18.10629581      20.05637673 
C       8.13016215      18.25909015      14.69213799 
C      18.65400904      24.31169341      11.09035641 
C      15.58790580      24.09063304      23.75511588 
C      23.29696910      24.15834892      15.28942540 
C      10.97463507      23.97072843      19.57967288 
C      17.30222693      21.33837476       8.67809406 
C      20.83235803      10.09791507      23.26637360 
C      13.41775765      10.29332509      11.19793568 
C      11.84033150      20.52053353      24.41967738 
C      22.51692294      20.86348032      10.38876381 
C       9.12243327      13.09018665      13.74122495 
C      18.34380343       9.19934018      11.14101871 
C      15.90511219       9.20427112      23.05826686 
C       8.32674448      20.81248851      20.51539050 
C      25.99171194      20.95981751      14.14114708 
C      17.09993646      21.05168553      26.07988319 
H      16.57367142      20.27805899      26.65290085 
H      16.36940053      21.62905599      25.50676569 
H      17.64374854      21.71496186      26.76296272 
C      25.35188477      13.13223948      20.82123396 
H      26.32338652      12.72601594      20.51747269 
H      24.98274205      12.58855031      21.69977698 
H      25.45215546      14.19912136      21.05168646 
C       9.85204190      10.98348566      18.52441942 
H       8.95271886      11.60753947      18.45580547 
H       9.58564689       9.98741167      18.89427873 
H      10.30592472      10.91257342      17.53130153 
H      26.63176344      15.78116414      14.24324998 
H      25.68119596      14.32252820      14.66650691 
H      27.25528555      14.63411010      15.46927944 
H      26.70487622      17.56783506      19.16551101 
H      27.20961080      18.30547281      20.72124632 
H      25.90733240      19.05509704      19.75423146 
H      26.46980549      20.64824278      13.20536432 
H      26.72365898      21.47476870      14.77450419 
H      25.13897195      21.61806703      13.93220925 
H      24.22832391      23.54012045      18.56779798 
H      23.16061106      23.25162647      19.98420170 
H      22.57399774      22.86568205      18.33874504 
H      23.43271743      24.99600737      14.59500988 
H      24.25372185      23.92492174      15.77236743 
H      22.56111489      24.42557668      16.05461855 
H      19.92976934      25.34270527      20.77490998 
H      19.61779466      25.65080866      22.51283563 
H      18.46234658      24.67473051      21.55158980 
H      20.78305671      26.22177742      15.72280280 
H      19.38602601      27.23076147      16.21542186 
H      19.16233722      25.89084698      15.03791563 
H      17.68249666      24.36220572      10.58350512 
H      19.24609773      23.48036200      10.69041107 
H      19.19629267      25.25249164      10.93548847 
H      14.84611822      27.29464109      18.72932300 
H      14.94171730      25.90626621      19.86724235 
H      13.37468323      26.36078901      19.14023757 
H      14.54447107      25.86669699      12.42587555 
H      15.80216720      24.89684462      13.25837650 
H      14.35096735      25.44531985      14.15786672 
H      10.02499597      23.68460192      19.11034687 
H      11.67118101      24.32092182      18.81090082 
H      10.79841848      24.76027798      20.31898419 
H      16.79166732      22.03061531       7.99809341 
H      17.80975141      20.55764946       8.09752668 
H      18.04001287      21.88184774       9.27453103 
H      22.83801740      21.13165901       9.37493810 
H      22.82794913      19.83766263      10.60864305 
H      22.96627763      21.55038514      11.11485435 
H      23.35765906      14.96632261      10.82318856 
H      23.57234715      15.07429848      12.59470310 
H      24.91285020      15.56481058      11.49857044 
H      19.75269823      16.68919028       7.13263752 
H      19.02668934      15.17942250       7.78179811 
H      20.41958375      15.92397591       8.60971489 
H      21.08945123      11.03596482       9.55227853 
H      20.63418554      11.10025798      11.29129014 
H      22.27321475      11.59063965      10.78003370 
H      18.83811106       9.57542570      10.23748920 
H      17.91103505       8.21373736      10.93622592 
H      19.06230367       9.13097054      11.96529367 
H      13.24637398       7.93872280      14.81981303 
H      13.11633221       9.71489010      15.01874618 
H      13.05343011       8.65164240      16.45134092 
H      12.56640906      10.08900403      10.53856253 
H      13.79443406       9.36082155      11.63610852 
H      14.22457459      10.77849270      10.63937831 
H      15.79362378      14.22601047       7.52269482 
H      16.14984730      15.55165149       8.68277020 
H      14.49907187      14.85041668       8.59955668 
H       9.50211426      12.56083716      12.85860268 
H       8.99888876      14.15406173      13.51169419 
H       8.16144961      12.66224817      14.04815128 
H      10.35025887      15.13558476       9.46957864 
H      10.47103723      16.84855819      10.00401489 
H      10.04405502      15.57269746      11.18295740 
H       7.30941873      18.51056792      14.01025727 
H       8.60034317      19.17777258      15.05642995 
H      10.54744404      21.42204763      10.45570340 
H      12.23240722      22.02118376      10.32645844 
H      11.45948331      21.86716962      11.93300184 
H      11.27131190      23.48375884      14.81457885 
H      11.81218960      22.97771280      16.43842268 
H      10.18654345      23.71074385      16.22312911 
H      20.62199472       7.48447682      14.47863950 
H      18.86199309       7.31414301      14.78225943 
H      19.94722136       7.74553014      16.12823094 
H      24.92616826      10.13931700      15.58649003 
H      24.03212674      10.93434711      16.92749037 
H      25.44722716      11.74283726      16.20610844 
H      24.11213209      16.49511298      24.59789516 
H      24.42911822      15.29429307      23.31739568 
H      24.18084243      14.75132055      25.00619932 
H      19.93753989      14.68172751      26.01547916 
H      18.66675918      13.96894034      27.06187556 
H      18.26534487      15.31377854      25.94781089 
H      15.23862439      14.74424938      26.66746905 
H      13.84620848      15.47662590      25.81617238 
H      14.41337912      16.17656864      27.36770774 
H      11.99762427      11.54159089      23.35942718 
H      13.09489943      10.75990036      24.54018299 
H      13.61874356      11.00894672      22.84113009 
H      16.28651842       8.19751291      23.26703279 
H      15.23156351       9.17115763      22.19463400 
H      15.38017912       9.58578942      23.94108090 
H      20.35122738       9.20670464      22.84706831 
H      20.10143437      10.66308755      23.85459414 
H      21.67445325       9.80266521      23.90387332 
H      15.66803506       7.20545391      19.07739920 
H      14.30062935       7.66888429      18.03504277 
H      21.97274487      21.69823066      24.52860442 
H      22.75416222      21.61294564      22.92240682 
H      23.67460723      21.15646278      24.38846919 
H      11.39740395      21.26991999      23.75343398 
H      11.51993502      20.70231297      25.45234130 
H      11.53161777      19.51641330      24.11195218 
H      14.99052204      24.99447241      23.92280308 
H      16.57038749      24.20318309      24.23015036 
H      15.06694105      23.21954836      24.16771305 
H       7.62281147      21.36931747      19.88584525 
H       9.16051252      21.46249117      20.80645283 
H       7.24490316      14.40228262      19.23720393 
H       7.87836189      15.54104548      20.46540131 
H       8.85084744      14.11455560      19.98494787 
H       9.47318990      15.28436647      23.07255627 
H      11.03908424      14.70214713      23.72871887 
H      10.82754339      14.87586788      21.96756085 
H      21.27524508       8.86203212      17.65845776 
H      21.04084578       8.00853502      19.21878975 
H      21.13851370       9.79564056      19.17896773 
H      14.01848117       7.30814192      19.77376960 
H       7.80585582      20.46236179      21.41418938 
H       7.75157331      17.67324443      15.53799243 
