322
Properties=species:S:1:pos:R:3 i=259 optimized=T E=-4361.9518386817 pbc="F F F" jobid=102_44-Ag-50_0-000002-PBE
Au      16.85880731      17.01859934      15.87170290 
Ag      17.67036141      16.97478137      18.66377898 
Ag      18.59271079      14.91265030      16.84428793 
Ag      15.84245209      14.95162015      17.64299809 
Ag      19.53701551      17.74605449      16.57031879 
Ag      15.00004281      17.75676478      17.94622746 
Ag      17.28464342      19.50513014      17.28348034 
Au      17.82960874      14.98357379      13.95166936 
Ag      16.63673407      14.98805698      20.52936340 
Au      18.22572260      19.48775756      20.12703627 
Ag      16.34263967      19.55669439      14.42591092 
Au      19.41937026      14.86945142      19.78850620 
Ag      15.01547683      15.00984431      14.70367429 
Ag      18.66156908      17.81893330      13.66371249 
Ag      15.86817869      17.83486793      20.83080378 
Au      20.44749669      17.65273351      19.40534154 
Au      14.10605733      17.81232259      15.06314445 
Au      21.31632053      15.64710722      17.57042204 
Au      13.13663274      15.72123883      16.85639407 
Ag      13.92346721      15.74476948      19.76523937 
Ag      20.52157848      15.72698797      14.69404764 
Au      15.44493213      20.29107161      19.40834490 
Au      19.08712098      20.28241577      15.11802579 
Au      20.07951904      20.30841261      17.92153075 
Au      14.52843307      20.37256575      16.57595399 
Au      17.59119494      12.77339169      18.68878242 
Au      16.80537111      12.81488612      15.70830110 
Au      15.96129647      17.11380734      12.93081552 
Au      18.53271370      16.98150230      21.56418985 
Ag      19.63347532      12.95209538      15.04709246 
Ag      14.78664330      12.96788983      19.39435267 
Ag      13.14908737      18.52738798      20.03197597 
Ag      21.36221798      18.49381985      14.48337232 
Ag      20.35477774      12.87594821      17.83911148 
Ag      14.04311840      12.97563387      16.54759913 
Ag      22.25028115      18.50128388      17.22016417 
Au      12.32505361      18.60369981      17.30000726 
Au      17.79014167      22.03289936      18.61517027 
Ag      16.82923027      22.06929484      15.95894607 
Au      20.42632638      19.18180402      21.93330473 
Ag      14.10493852      19.34182330      12.55035044 
Ag      18.71618695      14.26916884      22.54504668 
Au      15.78326473      14.41655426      11.95246792 
Ag      17.25766628      19.31295909      11.61086770 
Ag      17.27337737      19.20242122      22.97195084 
Ag      18.17422712      16.18889392      11.28524936 
Au      16.32303244      16.18091028      23.20187271 
Ag      21.35734846      16.24497790      21.71540760 
Ag      13.15377556      16.43622039      12.75442961 
Au      23.14931976      16.43843829      15.46970194 
Au      11.29946927      16.51481247      18.96264292 
Au      22.33592878      13.65534116      15.89900363 
Au      12.10933286      13.72129552      18.51998338 
Au      15.00249673      22.76133125      18.14946826 
Ag      19.63049881      22.77883489      16.38328780 
Ag      17.67827505      12.29825519      12.97514386 
Au      16.69581362      12.29742962      21.46108246 
Ag      20.01724175      14.16685793      12.38118125 
Au      14.42095301      14.16381284      22.03247221 
Au      21.82334520      21.01384495      15.79083840 
Ag      12.70232191      21.08146051      18.74145163 
Au      13.64805837      17.03117568      22.41000999 
Ag      20.87820442      17.05346764      12.08404193 
Au      22.31482335      19.78387409      19.76560672 
Ag      12.26856231      19.97895656      14.77446446 
Au      20.06246976      21.73335095      20.33971465 
Ag      14.56935197      21.79476245      14.16469244 
Au      15.74327710      10.87269198      17.46907678 
Ag      18.66600744      10.74655252      16.86207313 
Au      22.07222497      14.02062788      19.89143455 
Ag      12.31317815      14.18831727      14.51033466 
Ag      17.09881347      21.72234043      21.44600893 
Au      17.52862197      21.77710722      13.19547493 
Ag      19.60950054      12.10226389      20.58793277 
Ag      14.71087978      12.29992458      13.78005752 
Ag      23.22774044      16.72064131      19.34611005 
Au      11.33536424      16.95501085      15.06006990 
Ag      20.00878853      20.17297691      12.49026565 
Au      14.55563116      20.18442701      22.00676303 
Au      20.66468670      23.19649446      13.48904016 
Au      13.98141109      23.18789869      21.02380431 
Au      24.74948035      14.48982588      17.76661316 
Au       9.72030112      14.52927504      16.70931528 
Au      17.44657971      24.88235555      17.30723570 
Ag      21.58638722      10.83955887      14.75998753 
Ag      12.99867634      10.69409250      19.51199452 
Au      16.13856839       9.75298753      13.65121100 
Ag      17.94431059       9.67650591      20.49999104 
Ag      10.44584936      18.31481644      21.10665925 
Ag      24.04298862      18.22657416      13.32785959 
Au      24.54494945      20.32111646      16.87386749 
Au      10.02514333      20.47967221      17.60130557 
Au      23.72412078      18.28908270      22.04247148 
Ag      10.79976053      18.60576224      12.54394714 
S      19.52911044       9.64706089      14.69991726 
S      15.07604970       9.50013448      19.51039450 
Au      14.78854749      18.72817046      24.85673889 
Ag      19.78004954      18.78054316       9.81491925 
Ag      18.23669708      13.20170177      10.11653021 
Ag      16.13366103      13.17793564      24.32821090 
Au      19.33321203      21.97425666      23.41473520 
Au      15.30860019      22.07831531      11.18151790 
S      18.58108405      23.97669444      12.72633670 
S      16.06731769      23.97327506      21.79179210 
S      24.16441230      12.86063702      19.37388482 
S      10.24028869      12.90492216      15.08366942 
Au      12.54993751      13.50962736      11.64425315 
Au      21.75017096      13.15088296      22.73427629 
S       8.95173664      16.06745169      18.33512387 
S      25.50304274      16.04235224      16.15521314 
S      11.28596452      17.17351640      23.08282681 
S      23.25016682      17.14320025      11.30433278 
S      22.83408344      22.58214208      14.16507552 
S      11.75975782      22.67169068      20.43939634 
S      22.23747088      19.25993603      23.60431584 
S      12.22870557      19.61816212      10.91562919 
S      18.82577920       8.76331400      18.47835796 
S      15.32345533       9.01948178      15.71668688 
S      15.83591251      13.33542866       9.75561567 
S      18.50981299      13.15659052      24.76502749 
S      18.41411067      20.38882968      24.88117878 
S      16.14376332      20.46404013       9.67674339 
S      24.20945467      21.18995259      19.06244971 
S      10.37019113      21.46471741      15.46961773 
S      15.08904037      25.07836173      17.38073199 
S      19.79232290      25.12082269      17.21526597 
S      16.99046479      10.33297053      11.52436885 
S      17.34639637      10.31029519      22.76601112 
S      15.98872548      16.84576434      25.59786352 
S      18.54269222      16.93361727       8.92534268 
S      22.05317538      15.18659520      23.87108657 
S      12.32619150      15.58370141      10.56129426 
S      23.67403242      12.02679808      14.64296961 
S      10.95524187      11.93985093      19.72639414 
S      13.67967412      13.21170908      24.15458673 
S      20.66919258      13.15044595      10.23468492 
S      21.52585807      11.00268814      21.77912200 
S      12.70896294      11.34408992      12.55617456 
S      20.66491769      23.37992736      22.02773413 
S      13.99420450      23.55475343      12.50818852 
S      25.25003619      17.00489621      20.77862126 
S       9.27460334      17.19941216      13.79967987 
S      13.85160480      20.81787444      24.26585008 
S      20.79050804      20.92568976      10.26072025 
S      25.49803097      19.40988836      14.89741996 
S       9.03110087      19.54849329      19.55158574 
C      18.92339776      14.42026021      26.02985893 
C      15.49126099      14.64953415       8.52374817 
C      23.46054915      22.84713762      18.84407172 
C      11.17519016      23.08761974      15.75968769 
C      20.61821669       8.49394884      18.77431701 
C      13.49887556       8.97256765      15.53152959 
C      10.67792244      15.45191976      22.90220125 
C      23.82693931      15.40413264      11.45330695 
C       8.22435550      15.02831809      19.66049333 
C      26.26966073      15.02442409      14.83633835 
C      22.84116899      20.98199023      23.78266239 
C      11.66529742      21.36160671      10.78344317 
C      14.79430359      26.21207540      18.79596506 
C      20.04616419      26.28761044      15.81665856 
C      23.86154297      15.32389808      24.15907376 
C      10.52253810      15.82180655      10.31219345 
C      19.80634643      15.91679619       8.06012792 
C      14.72383386      15.80490108      26.42214602 
C      19.72089173      24.89258654      21.59964728 
C      14.99134450      25.02345666      12.97156001 
C      21.19518461      11.44379976      10.66944547 
C      13.05602915      11.54432158      23.71027624 
C      24.77097323      11.20140224      15.86597582 
C      19.94476229       7.90168203      15.12791032 
C      14.76580749       7.77163950      18.97419980 
C      26.39658791      18.14173242      19.90915589 
C       8.15192247      18.23055568      14.82075287 
C      18.80027623      24.20169891      10.91999355 
C      15.81251064      24.24133683      23.58959873 
C      23.47396121      24.01480280      15.11666273 
C      11.13312450      24.15186064      19.55130124 
C      17.34175375      21.31071193       8.57568703 
C      20.90901143       9.97239100      23.16836673 
C      13.31986172      10.34217137      11.14305755 
C      12.02478796      20.67668837      24.32087663 
C      22.61905606      20.75079337      10.21225555 
C       9.04060639      13.19437809      13.72544135 
C      18.33722658       9.12100419      11.23942495 
C      15.88455937       9.27892516      23.16657360 
C       8.46063467      21.01843615      20.48738678 
C      26.08804420      20.88092217      13.97593091 
C      17.24536852      21.28183718      25.97651241 
H      16.74396801      20.52435281      26.59194878 
H      16.49137549      21.83596994      25.41098417 
H      17.81522248      21.96495225      26.61602337 
C      25.32297385      13.09214657      20.77465386 
H      26.28444730      12.64123387      20.50230196 
H      24.89371943      12.56902099      21.63834752 
H      25.46078196      14.15445928      21.00319620 
C       9.79396225      11.17592972      18.52354433 
H       8.96137247      11.87163408      18.36284413 
H       9.42323890      10.24181593      18.96102032 
H      10.27335490      10.97848733      17.56024016 
H      26.49250876      15.69382648      13.99580112 
H      25.59654274      14.22407285      14.50728659 
H      27.20273891      14.59901182      15.22343991 
H      26.84903025      17.58120225      19.08261619 
H      27.17221569      18.46150551      20.61395168 
H      25.87642764      19.01786775      19.51067111 
H      26.57869283      20.52392854      13.06252834 
H      26.81777667      21.41541091      14.59481808 
H      25.25625863      21.54456447      13.71196772 
H      24.21138151      23.50926076      18.39854997 
H      23.17832146      23.21495295      19.83778907 
H      22.56783892      22.79620451      18.20911543 
H      23.65811329      24.84315196      14.42302693 
H      24.41730948      23.70485203      15.58340081 
H      22.76378347      24.32207043      15.89155735 
H      20.17219892      25.32393399      20.69826286 
H      19.81432742      25.59446715      22.43658239 
H      18.66494401      24.66985900      21.41139042 
H      21.12522381      26.34785972      15.63009074 
H      19.66960610      27.27491170      16.10546011 
H      19.54285139      25.94138535      14.90835534 
H      17.80075008      24.24652949      10.46976577 
H      19.37322358      23.37243027      10.48951800 
H      19.32888424      25.14717942      10.75135049 
H      15.12039796      27.21585993      18.50066040 
H      15.33157540      25.88255991      19.69100357 
H      13.71699242      26.21696973      18.99982841 
H      14.98042926      25.72859919      12.13265637 
H      16.02407484      24.75377821      13.21668826 
H      14.51748607      25.48300771      13.84700166 
H      10.15266320      23.89424391      19.13139007 
H      11.80845941      24.44202876      18.74034729 
H      11.02299234      24.97928462      20.26108273 
H      16.80539984      22.05350686       7.97487933 
H      17.76576588      20.54092010       7.91829626 
H      18.15154618      21.78969020       9.13280302 
H      22.95436261      21.00706137       9.20050455 
H      22.93854357      19.73071175      10.44826184 
H      23.05486798      21.45133791      10.93356967 
H      23.29872890      14.80439229      10.70247294 
H      23.61489387      14.99804361      12.44908025 
H      24.90527776      15.37464961      11.26106199 
H      20.12865363      16.45725194       7.16316620 
H      19.34132147      14.96639302       7.76965154 
H      20.67138094      15.70816287       8.69688921 
H      21.09850293      10.80695228       9.78275818 
H      20.59949038      11.03001254      11.48950192 
H      22.24706092      11.48305176      10.97585400 
H      18.86467310       9.42523700      10.32778870 
H      17.89143476       8.13136763      11.08985160 
H      19.02998510       9.09963275      12.08857038 
H      13.23119514       8.10599234      14.91579550 
H      13.11516106       9.88696027      15.06467065 
H      13.05803043       8.86419937      16.53092866 
H      12.47335804      10.13228942      10.47977146 
H      13.72292804       9.40682100      11.54984191 
H      14.10989959      10.86266294      10.59139803 
H      15.61955348      14.20435737       7.52973484 
H      16.17235297      15.50080690       8.63727076 
H      14.45286205      14.97815388       8.65237851 
H       9.42545246      12.67437567      12.83943952 
H       8.93500214      14.26435757      13.51454220 
H       8.07003886      12.77483680      14.01321384 
H      10.17953047      15.11618873       9.54741386 
H      10.37832264      16.85108408       9.95964439 
H       9.95859093      15.67072627      11.23731068 
H       7.29950351      18.51340915      14.19195454 
H       8.64951545      19.13240549      15.19125717 
H      10.68574900      21.37230741      10.29259622 
H      12.39398870      21.90429516      10.16874147 
H      11.59192900      21.84572648      11.76206163 
H      11.43988233      23.49951467      14.77804672 
H      12.08684260      22.98258989      16.36079251 
H      10.46444630      23.75306784      16.26138417 
H      20.99584737       7.78991250      15.40855797 
H      19.74020709       7.28437632      14.24508812 
H      19.30438879       7.58498746      15.96064591 
H      25.18423178      10.30180131      15.39534467 
H      24.23356690      10.93326536      16.78024297 
H      25.58164541      11.89400796      16.12442246 
H      24.05350462      16.33627755      24.53539309 
H      24.43327021      15.16946563      23.23985964 
H      24.15215099      14.58290827      24.91195972 
H      19.99224668      14.65066121      25.94342268 
H      18.71529195      13.99446519      27.01828070 
H      18.33961566      15.33714564      25.89406806 
H      15.19546279      14.84679226      26.67632244 
H      13.86223106      15.62353203      25.77303733 
H      14.40416872      16.31634617      27.33717615 
H      12.01724942      11.64768625      23.37551195 
H      13.09260795      10.90646083      24.60123648 
H      13.64914673      11.09686834      22.90694175 
H      16.24740742       8.27208778      23.40583844 
H      15.19111612       9.22702085      22.32009774 
H      15.38553675       9.70483343      24.04428064 
H      20.47465664       9.06061145      22.74078249 
H      20.14439436      10.49741604      23.74998294 
H      21.76047107       9.71655513      23.80885792 
H      15.73564238       7.32937947      18.71594789 
H      14.10551962       7.72238661      18.10400299 
H      22.11505585      21.52204602      24.40353279 
H      22.93547749      21.47931998      22.81264662 
H      23.81505939      20.95036983      24.28444934 
H      11.61150055      21.44582002      23.65765728 
H      11.70571107      20.86134189      25.35346462 
H      11.68606667      19.68528615      24.00452337 
H      15.25670278      25.17464720      23.73430546 
H      16.80166855      24.32225062      24.05701933 
H      15.25837604      23.40879488      24.03674115 
H       7.76228279      21.58439949      19.86030230 
H       9.30527790      21.65255076      20.78190556 
H       7.29736696      14.58279297      19.28114307 
H       7.99481188      15.68664906      20.50765768 
H       8.91727513      14.24101892      19.97770020 
H       9.59815150      15.44920302      23.09052790 
H      11.19183002      14.83025774      23.64519633 
H      10.88712195      15.06226625      21.89925538 
H      21.11052233       8.32253299      17.80965389 
H      20.74155643       7.60470226      19.40345997 
H      21.07961515       9.35495129      19.27086145 
H      14.31670602       7.22514923      19.81125004 
H       7.93705865      20.66017905      21.38183098 
H       7.80825838      17.62833543      15.66980325 
