322
Properties=species:S:1:pos:R:3 i=220 optimized=T E=-4361.9302618757 pbc="F F F" jobid=102_44-Ag-50_0-000007-PBE
Au      16.86590116      16.98546106      15.81392633 
Ag      17.68094758      16.98571992      18.66462340 
Ag      18.61173979      14.90930671      16.83998313 
Ag      15.87360897      14.94139363      17.60197131 
Ag      19.50682970      17.73505064      16.55356592 
Au      15.03537065      17.75902071      17.91708599 
Au      17.29593517      19.50936059      17.27909891 
Ag      17.82510594      15.02525271      13.91471183 
Ag      16.62331054      15.04044677      20.56043013 
Au      18.22384530      19.52930701      20.15078845 
Au      16.39166106      19.58072010      14.41183721 
Au      19.44066901      14.94730025      19.74434220 
Ag      15.04039074      15.01714111      14.65532681 
Ag      18.67578213      17.88720360      13.63848573 
Au      15.87265983      17.89455519      20.85007678 
Ag      20.39416463      17.69389214      19.44163175 
Au      14.13002335      17.80707430      14.97894179 
Ag      21.32692991      15.65368668      17.58708885 
Au      13.13791774      15.70555862      16.79400220 
Au      13.92165932      15.74925263      19.72895243 
Ag      20.54134910      15.73888723      14.73415328 
Ag      15.44253129      20.35674120      19.39302605 
Au      19.14157005      20.33329331      15.14314477 
Au      20.03824322      20.36274220      17.96948199 
Au      14.53847796      20.39097070      16.55599149 
Ag      17.64521766      12.75123756      18.70841821 
Au      16.83239031      12.79306968      15.70162856 
Ag      16.00533394      17.10407023      12.89334202 
Ag      18.51789591      17.02855548      21.58099375 
Ag      19.62836343      12.95242193      15.01974767 
Au      14.83316614      12.98760670      19.37055504 
Au      13.12650186      18.57388768      19.95582635 
Ag      21.39915637      18.51552554      14.52904863 
Ag      20.39250204      12.90200354      17.80150549 
Ag      14.06692316      12.97326164      16.53177696 
Au      22.15683144      18.48854220      17.26357404 
Au      12.33694331      18.59689255      17.22027782 
Au      17.75235275      22.07397513      18.64369238 
Ag      16.89059591      22.10905980      15.94224029 
Au      20.42917031      19.23257772      21.92425679 
Ag      14.18923053      19.44582511      12.53847295 
Au      18.76624582      14.30993302      22.42661430 
Ag      15.74829916      14.41342102      11.91555507 
Au      17.26388660      19.39650548      11.63745890 
Ag      17.23193635      19.26969664      22.92895014 
Au      18.24917251      16.23099488      11.28883552 
Au      16.23201389      16.21644196      23.22166654 
Ag      21.30564867      16.22481898      21.71057471 
Ag      13.20036443      16.43787584      12.68211590 
Ag      23.22518226      16.45961962      15.59968949 
Au      11.27362335      16.52618034      18.92690594 
Au      22.31407762      13.69856580      15.78134973 
Au      12.11997427      13.74843637      18.53512321 
Au      14.95825182      22.80335151      18.00060344 
Ag      19.67674304      22.80455924      16.42184109 
Au      17.72029725      12.37932481      12.94447544 
Au      16.64121295      12.34089281      21.46033569 
Ag      20.06312264      14.18430435      12.41640751 
Ag      14.32534932      14.17610740      22.01497472 
Ag      21.87460342      21.01861216      15.85912284 
Ag      12.72759741      21.12837719      18.68199785 
Au      13.61984548      17.08081291      22.35999037 
Au      20.91582624      17.04035649      12.16142718 
Au      22.25834167      19.89146432      19.78627901 
Au      12.27990617      20.00739475      14.72442148 
Ag      20.01096246      21.78356177      20.41478467 
Au      14.62782845      21.86951366      14.18207307 
Au      15.76440419      10.86272076      17.50026792 
Ag      18.67904256      10.75806845      16.80773898 
Ag      22.12010431      14.06122732      19.89572715 
Ag      12.37531339      14.14896601      14.43334260 
Ag      17.03865413      21.76790112      21.44059395 
Ag      17.55427853      21.84465285      13.15288909 
Au      19.78080580      12.19929718      20.52316110 
Ag      14.77337102      12.27134297      13.78056704 
Ag      23.16727533      16.81120789      19.39696300 
Au      11.36877870      16.90675905      15.00054093 
Ag      20.09888366      20.26548348      12.55236833 
Ag      14.42916749      20.15408216      22.00711647 
Au      20.73534258      23.21638281      13.62942209 
Ag      13.99005850      22.96472239      20.88752138 
Ag      24.51349696      14.53527391      17.76003592 
Ag       9.97713871      14.61603051      16.54796800 
Au      17.53569979      24.90240875      17.43016501 
Ag      21.64324587      10.84682161      14.76579742 
Au      12.96243950      10.69225396      19.57228563 
Au      16.18324947       9.68742003      13.77703320 
Au      18.27066256       9.66703206      20.54777299 
Au      10.38392368      18.35899913      21.12437186 
Ag      24.12546219      18.25315373      13.41540597 
Ag      24.50334862      20.23712413      17.00177549 
Ag      10.09812389      20.40857318      17.56476927 
Ag      23.62739005      18.32458705      21.97871191 
Au      10.92201324      18.57529937      12.33782582 
S      19.62280063       9.58675403      14.70548277 
S      15.01496717       9.55573553      19.58029036 
Ag      14.66024125      18.82384316      24.67526947 
Ag      19.81942040      18.82746450       9.91727772 
Au      18.41684710      13.29862314      10.01117649 
Au      16.07602579      13.30196530      24.39539659 
Au      19.27395473      22.02661388      23.40841478 
Au      15.34761842      22.16582242      11.11195537 
S      18.68180498      24.04391644      12.82581564 
S      15.99772694      23.98299734      21.77900861 
S      24.13292807      12.74287977      19.33657191 
S      10.33593485      12.83003879      14.95408316 
Au      12.75048374      13.47158192      11.55096055 
Au      21.87498761      13.32124865      22.81680971 
S       8.99833296      16.18466385      18.12269389 
S      25.59200682      16.05772809      16.21451808 
S      11.27289313      17.22156975      23.01857289 
S      23.25821503      17.13566652      11.44408170 
S      22.92610803      22.66391890      14.30094067 
S      11.64859359      22.69857479      20.28422698 
S      22.15795350      19.24796264      23.66458693 
S      12.37782804      19.59714026      10.79809011 
S      19.03037849       8.84635601      18.49754323 
S      15.35746906       8.94926905      15.83255042 
S      16.07899542      13.31153869       9.67325093 
S      18.43146110      13.30553609      24.64069539 
S      18.33115510      20.41437463      24.84694611 
S      16.25410768      20.53452914       9.66971312 
S      24.26754239      21.18689943      19.24288888 
S      10.36595405      21.41959444      15.34554614 
S      15.18695259      25.17228832      17.43356812 
S      19.88885306      25.09549297      17.36961685 
S      16.96968026      10.38284803      11.66789490 
S      17.49284874      10.36820711      22.66545028 
S      16.00677681      17.02969325      25.56519518 
S      18.46560042      17.07694883       8.95895007 
S      22.13343701      15.37002031      23.93341351 
S      12.57579091      15.53587201      10.43558714 
S      23.72520784      12.04940693      14.59837740 
S      10.93887651      11.91216310      19.64726780 
S      13.70720689      13.25538004      24.24513943 
S      20.78777449      13.26843058      10.21170644 
S      21.65879407      11.19070454      21.82431136 
S      12.81782129      11.31058919      12.48561452 
S      20.61921910      23.48810808      22.10849234 
S      14.05630820      23.57389377      12.52928650 
S      25.22113342      16.95468183      20.77532616 
S       9.41123879      17.23095831      13.59122351 
S      13.69052450      20.99731405      24.21884050 
S      20.88539398      20.96555731      10.31682795 
S      25.56614964      19.40796029      14.97733958 
S       9.00361665      19.48535592      19.55396222 
C      18.85589806      14.56393562      25.90071042 
C      15.72730721      14.54753954       8.36764756 
C      23.62175635      22.89221158      19.03789051 
C      11.09747752      23.07933292      15.61969516 
C      20.84995589       8.71059131      18.69689025 
C      13.53116475       8.95890452      15.63408314 
C      10.64419260      15.50708398      22.85656260 
C      23.86001832      15.40605745      11.56948676 
C       8.14120991      15.18480525      19.40027174 
C      26.35036777      14.99089510      14.92683806 
C      22.74000227      20.97530962      23.87942451 
C      11.76856944      21.32500786      10.69059153 
C      14.85715242      26.23357414      18.89556401 
C      20.16451588      26.30483582      16.01115306 
C      23.93911226      15.55473729      24.21143590 
C      10.78429009      15.73625216      10.08086237 
C      19.65105021      16.04148289       8.01480790 
C      14.81617456      15.97706564      26.48304044 
C      19.64562383      24.98991248      21.70308170 
C      15.03947365      25.05828998      12.96757946 
C      21.29572313      11.53387927      10.53296838 
C      13.21822720      11.51483734      23.92303539 
C      24.85062479      11.27571297      15.82900349 
C      20.08068744       7.85969473      15.16290200 
C      14.67454286       7.81661177      19.10986012 
C      26.40343842      18.03601491      19.87463779 
C       8.26731975      18.33965693      14.49927255 
C      18.97929291      24.31955330      11.03512367 
C      15.66860572      24.24962289      23.56519508 
C      23.51636382      24.11108491      15.26509316 
C      11.22286201      24.25199325      19.39733758 
C      17.51188648      21.36727158       8.62856679 
C      21.00740094      10.14812904      23.18492364 
C      13.43194326      10.26825452      11.10338407 
C      11.85744341      20.86596378      24.21661941 
C      22.71167584      20.76726060      10.30509564 
C       9.14786512      13.13207343      13.58576061 
C      18.37855848       9.28687735      11.26125033 
C      16.11453330       9.24197035      23.09532576 
C       8.41874316      20.97566985      20.44661188 
C      26.13791701      20.91642591      14.10088847 
C      17.13105942      21.28900282      25.92417099 
H      16.64291457      20.52587030      26.54360239 
H      16.37096969      21.82495023      25.34940314 
H      17.68152745      21.98727012      26.56440688 
C      25.35800184      13.00723030      20.67933962 
H      26.30772070      12.55056549      20.37781862 
H      24.98078048      12.51473911      21.58371639 
H      25.51038668      14.07507361      20.87426781 
C       9.86193812      11.13098832      18.38100807 
H       8.98952644      11.78094275      18.24145310 
H       9.54149927      10.15510765      18.76303256 
H      10.37539776      11.01638953      17.42190019 
H      26.65356330      15.63484642      14.09193867 
H      25.64764189      14.23040911      14.56578765 
H      27.23798411      14.50522581      15.34829381 
H      26.67617408      17.54923165      18.93110093 
H      27.29419410      18.15345441      20.50277607 
H      25.97598446      19.02258311      19.66995557 
H      26.64677874      20.60898441      13.17987716 
H      26.85141722      21.44125513      14.74702247 
H      25.29980035      21.57952511      13.85554477 
H      24.42604416      23.51537823      18.63003868 
H      23.32435060      23.26935653      20.02360433 
H      22.75393840      22.91314164      18.36830842 
H      23.63368989      24.96715613      14.59138806 
H      24.49111194      23.84583724      15.69309003 
H      22.82000700      24.36105116      16.07255135 
H      20.08685388      25.43955270      20.80577328 
H      19.72370798      25.68677615      22.54528057 
H      18.59291887      24.75018921      21.51325051 
H      21.24624485      26.36638959      15.84129493 
H      19.78783274      27.28405742      16.32579925 
H      19.67187579      25.98764137      15.08636352 
H      18.00108636      24.41224576      10.54751425 
H      19.53911830      23.48439690      10.59819313 
H      19.54458680      25.25015694      10.91097779 
H      15.24500777      27.23604807      18.68186924 
H      15.32396761      25.82813994      19.79981730 
H      13.77012959      26.28058233      19.03185791 
H      14.96457391      25.76901559      12.13624433 
H      16.08966978      24.80973441      13.15584850 
H      14.59641820      25.49390821      13.87097805 
H      10.22856802      24.13104223      18.95039438 
H      11.94733080      24.47245980      18.60666614 
H      11.19706011      25.07871089      20.11643401 
H      16.99563979      22.07386266       7.96864743 
H      17.99998430      20.58714881       8.03057097 
H      18.26476366      21.88890550       9.22558742 
H      23.06809917      20.99769677       9.29428138 
H      23.01238257      19.74784725      10.56690506 
H      23.14581784      21.47600705      11.01945932 
H      23.34540281      14.81281380      10.80422355 
H      23.65365482      14.97947057      12.55753578 
H      24.93979089      15.40709233      11.38097400 
H      19.91711734      16.58308115       7.09951949 
H      19.15629051      15.09509037       7.76060451 
H      20.55426624      15.82425440       8.59272994 
H      21.13199379      10.93469508       9.63020615 
H      20.74705948      11.10225607      11.37589004 
H      22.36601212      11.54958053      10.77186839 
H      18.86752497       9.70144059      10.37199114 
H      17.97821656       8.29234966      11.03278195 
H      19.08277502       9.22934543      12.09921796 
H      13.23809285       8.05658949      15.08470155 
H      13.18759531       9.84710485      15.09194970 
H      13.07861771       8.95031666      16.63411582 
H      12.59497358      10.07489841      10.42318407 
H      13.79227719       9.32663302      11.53504458 
H      14.25271535      10.75165211      10.56360755 
H      15.98299704      14.10825142       7.39670542 
H      16.29790568      15.47084354       8.52400372 
H      14.65319969      14.76753416       8.40740215 
H       9.52314515      12.61495742      12.69429558 
H       9.04342701      14.20188585      13.37430934 
H       8.17309779      12.71876834      13.86953979 
H      10.50562152      15.03470110       9.28680189 
H      10.63668786      16.76864249       9.74068963 
H      10.17239179      15.55869949      10.96979829 
H       7.43332630      18.57764246      13.82844595 
H       8.76389401      19.26402531      14.80954495 
H      10.79307085      21.32106530      10.19196743 
H      12.49245298      21.89002884      10.08982611 
H      11.67967278      21.78446666      11.67982688 
H      11.38935747      23.48990111      14.64606127 
H      11.98110653      23.02390558      16.26696637 
H      10.33440058      23.71884426      16.07791816 
H      21.14685905       7.76395576      15.38731640 
H      19.83592839       7.21606034      14.30929738 
H      19.48964430       7.55069593      16.03368333 
H      25.19707143      10.31995382      15.41941981 
H      24.35850879      11.11755332      16.79331055 
H      25.70737492      11.94468149      15.97692016 
H      24.10286255      16.57099062      24.59189430 
H      24.51204159      15.41665111      23.28988682 
H      24.25381139      14.82213808      24.96277374 
H      19.93037907      14.76780209      25.81327636 
H      18.63446407      14.13632410      26.88574181 
H      18.28373200      15.48750624      25.75605637 
H      15.31255461      15.03063016      26.73250877 
H      13.92220784      15.76230006      25.88999729 
H      14.53584411      16.50676931      27.40086568 
H      12.13923011      11.51567248      23.72687011 
H      13.42693553      10.90825727      24.81127336 
H      13.73868631      11.10485737      23.05193594 
H      16.53908041       8.25521154      23.31384640 
H      15.39633766       9.16888713      22.27148486 
H      15.63024437       9.64241033      23.99352410 
H      20.59995246       9.23299059      22.73797621 
H      20.21816078      10.65899616      23.74551270 
H      21.84590221       9.90469778      23.84776251 
H      15.64852218       7.32624018      18.98949384 
H      14.11604109       7.74082434      18.17275616 
H      21.99423706      21.51712308      24.47463388 
H      22.87535788      21.48153192      22.91853923 
H      23.69471597      20.94267765      24.41740156 
H      11.45830267      21.62891251      23.53824921 
H      11.50307177      21.05376432      25.23667528 
H      11.51851151      19.87766662      23.89109082 
H      15.14110162      25.20364036      23.68080416 
H      16.62923987      24.29532330      24.09192487 
H      15.05446159      23.44121952      23.97921036 
H       7.68960102      21.48317999      19.80337230 
H       9.25328412      21.65120468      20.67315890 
H       7.20594414      14.80773985      18.96971076 
H       7.91579946      15.84198330      20.24931148 
H       8.75946725      14.34558296      19.73612702 
H       9.56228325      15.52251572      23.03122225 
H      11.14314577      14.89839737      23.62036685 
H      10.86262200      15.10078078      21.86261612 
H      21.28188158       8.52184975      17.70694671 
H      21.07419993       7.86750585      19.36005888 
H      21.27546272       9.63042703      19.11315747 
H      14.11270463       7.33733496      19.91936289 
H       7.92673588      20.65832028      21.37291340 
H       7.90024697      17.79875512      15.37941567 
