322
Properties=species:S:1:pos:R:3 i=209 optimized=T E=-4516.7455957024 pbc="F F F" jobid=102_44-Ag-90_2-000010-PBE
Ag      16.84489475      17.06446200      15.90757491 
Ag      17.67169189      17.03134114      18.70583155 
Ag      18.62558461      14.98546481      16.88811923 
Ag      15.88431973      14.98966833      17.66443173 
Ag      19.51379797      17.78079527      16.63784859 
Ag      15.00521773      17.80851565      17.99806417 
Ag      17.27346468      19.54160577      17.33973873 
Ag      17.84028241      15.09298146      13.98677634 
Ag      16.67348277      15.04341598      20.57738563 
Ag      18.21651249      19.53278667      20.16419006 
Ag      16.34548903      19.59798674      14.47216651 
Ag      19.44756521      14.97827215      19.80335379 
Ag      15.06538759      15.03989593      14.76359676 
Ag      18.63602069      17.89682596      13.71974507 
Ag      15.87209106      17.85787186      20.89019379 
Ag      20.43264539      17.73677067      19.46392200 
Ag      14.14051128      17.82807652      15.13505444 
Ag      21.35023799      15.72327040      17.62775102 
Ag      13.16372718      15.78072860      16.93729144 
Ag      13.98290776      15.79505537      19.79985588 
Ag      20.54869873      15.77461082      14.75892719 
Ag      15.43981950      20.34624197      19.44272606 
Au      19.08232340      20.38173778      15.22525725 
Ag      20.01803071      20.33805193      18.02277469 
Ag      14.53583698      20.37047222      16.64394703 
Ag      17.63932729      12.83774684      18.73481912 
Ag      16.84284574      12.87496428      15.77863148 
Ag      15.99130423      17.14441791      13.01513300 
Ag      18.54019126      17.04665985      21.57851563 
Ag      19.65266628      13.04904697      15.09764604 
Ag      14.86286630      13.02122463      19.43837240 
Ag      13.13538594      18.55862890      20.04973587 
Au      21.35936771      18.51939203      14.57503334 
Ag      20.38856119      12.98745295      17.87636690 
Ag      14.09282694      13.02221937      16.64495728 
Ag      22.19012132      18.57356726      17.30596401 
Ag      12.34310978      18.62504518      17.32673758 
Ag      17.72867531      22.03448817      18.70746284 
Ag      16.82121303      22.06197853      16.01368258 
Au      20.47568138      19.21271227      21.93459672 
Ag      14.11985494      19.36855454      12.65091117 
Ag      18.73108352      14.34269783      22.52682381 
Ag      15.75678922      14.44763604      12.02410909 
Ag      17.28252152      19.38788191      11.65371206 
Au      17.32274715      19.26894383      22.94135331 
Ag      18.17996198      16.22632743      11.33473563 
Ag      16.31093832      16.18954502      23.25644055 
Ag      21.32271732      16.25169584      21.74667536 
Ag      13.21606336      16.38225887      12.82728124 
Ag      23.18572523      16.54653557      15.55889258 
Ag      11.31814833      16.53356333      19.00281479 
Ag      22.39195631      13.75353969      15.87892966 
Au      12.18195955      13.79038359      18.69267628 
Ag      14.97639478      22.82504226      18.10946614 
Ag      19.57972444      22.81284492      16.57029097 
Ag      17.72530403      12.43947404      13.01968776 
Ag      16.76546129      12.36787754      21.49606017 
Ag      20.05849651      14.25050287      12.45423580 
Ag      14.45326391      14.20938429      22.08795762 
Ag      21.80698159      21.08844950      15.82606367 
Ag      12.74280861      21.11448628      18.78192984 
Ag      13.62380786      17.04940958      22.41864728 
Ag      20.84632318      17.13081228      12.09751896 
Ag      22.29033497      19.90015891      19.80737703 
Ag      12.28973434      19.99923831      14.82750024 
Ag      19.96351054      21.74586727      20.48230355 
Ag      14.58698267      21.82390257      14.22966263 
Ag      15.77306110      10.86279219      17.57895957 
Ag      18.70679548      10.86602937      16.88162173 
Ag      22.10069677      14.11862427      19.92813040 
Ag      12.38393275      14.21043452      14.61086575 
Ag      17.00353887      21.74351935      21.48737707 
Ag      17.53871139      21.84765908      13.21026455 
Ag      19.71271432      12.23482928      20.62559930 
Ag      14.75362218      12.32251621      13.88361743 
Ag      23.18424289      16.84915494      19.44041992 
Au      11.41234350      17.00546388      15.10842890 
Au      20.01826752      20.22551672      12.62155783 
Au      14.51248313      20.08079437      22.06992103 
Ag      20.50508909      23.07572883      13.69980102 
Ag      14.08437960      22.93039276      21.00117827 
Au      24.64109648      14.52356760      17.79532522 
Ag      10.01998456      14.70589697      16.71148489 
Ag      17.30027232      24.78109163      17.40915280 
Ag      21.60044022      10.93930471      14.74125108 
Ag      12.93037088      10.86297921      19.64274099 
Ag      16.43865728       9.89275502      13.82720963 
Ag      18.00765970       9.82097079      20.59338844 
Ag      10.42980349      18.28730206      21.21885691 
Ag      24.02809400      18.31853262      13.35902075 
Ag      24.46300809      20.39799741      16.93342848 
Ag      10.06786290      20.44576096      17.71290893 
Ag      23.63238846      18.35393477      22.08349828 
Ag      10.88504344      18.55415378      12.55026306 
S      19.54634140       9.71326321      14.73678426 
S      14.97184415       9.62073580      19.69574033 
Ag      14.72695303      18.75395192      24.73504338 
Au      19.74588306      18.85372393       9.76740430 
Ag      18.23894262      13.29712268      10.17143562 
Ag      16.24693365      13.19318628      24.34541014 
Ag      19.30934112      21.92678639      23.40825872 
Ag      15.23549284      22.12508591      11.32614252 
S      18.47964429      24.12238737      12.86204333 
S      16.09161516      24.01675741      21.85307677 
S      24.11501399      12.79585331      19.31774230 
S      10.37127763      12.88231310      15.14737174 
Ag      12.79404233      13.47947598      11.72755874 
Ag      21.70114392      13.32868806      22.78864947 
S       8.96978051      16.25144145      18.26121115 
S      25.51955877      16.12987369      16.30648636 
S      11.25105111      17.12888454      23.17133157 
S      23.24170394      17.14940801      11.38865895 
S      22.83195849      22.80014133      14.33325660 
S      11.74114764      22.74652133      20.37161137 
S      22.18108055      19.35781487      23.72594323 
S      12.32205005      19.56194198      10.91996984 
S      18.84813339       8.93928591      18.54322337 
S      15.59982832       8.98223696      15.86254270 
S      15.85405507      13.42121679       9.75297705 
S      18.63262160      13.28185701      24.77529905 
S      18.39179226      20.27954852      24.91540018 
S      16.08790534      20.51237355       9.76915984 
S      24.23775726      21.31435317      19.16355283 
S      10.33659316      21.39886122      15.50280770 
S      14.92161259      25.20926262      17.44470503 
S      19.69162940      25.14007968      17.36962356 
S      17.08819646      10.48703502      11.57414218 
S      17.41834172      10.37682192      22.87318975 
S      15.94274465      16.89840309      25.63745039 
S      18.50493461      17.03537713       8.95545225 
S      22.09790384      15.38794559      23.95759581 
S      12.43454323      15.57356051      10.60672011 
S      23.69132996      12.09734957      14.53751807 
S      10.84964696      12.06103991      19.83506685 
S      13.80873377      13.19840547      24.24149889 
S      20.67571107      13.31763158      10.25720330 
S      21.63331924      11.13505435      21.80272847 
S      12.85818710      11.25458862      12.63845461 
S      20.70335897      23.44085395      22.12172367 
S      13.85594496      23.59683803      12.67072005 
S      25.22544227      17.04319124      20.83774762 
S       9.33064137      17.18814375      13.82501519 
S      13.72751165      20.92415325      24.23763029 
S      20.74755461      20.91358143      10.38942655 
S      25.46840248      19.47617511      14.92951242 
S       9.01862761      19.52279760      19.69385277 
C      18.97907990      14.58172637      26.02512102 
C      15.50174873      14.73016380       8.51458086 
C      23.52668688      22.99966833      18.99320399 
C      11.03504360      23.08357941      15.72092691 
C      20.64970839       8.69765863      18.81281227 
C      13.79343051       8.76085276      15.60759375 
C      10.63553876      15.40327825      23.02398987 
C      23.83314581      15.42022614      11.57552656 
C       8.13709991      15.20653400      19.52229587 
C      26.34505112      15.15869737      14.98493445 
C      22.80769045      21.07637826      23.88841652 
C      11.72478875      21.29316059      10.76605063 
C      14.72436472      26.29743896      18.91704512 
C      19.89170539      26.28760834      15.94221374 
C      23.92077784      15.48973001      24.17239650 
C      10.61315000      15.72268902      10.41034508 
C      19.71869275      16.01059258       8.03658980 
C      14.67721596      15.86484238      26.47696932 
C      19.76372287      24.97044447      21.73304984 
C      14.80871852      25.09679497      13.13802579 
C      21.28900950      11.62784356      10.63837894 
C      13.20540440      11.52229898      23.79139030 
C      24.84066343      11.25301002      15.70151953 
C      19.97260686       7.97907663      15.19425966 
C      14.57378707       7.89591865      19.18149782 
C      26.37479233      18.17145644      19.95139695 
C       8.19379619      18.27757499      14.76971463 
C      18.80720038      24.37865880      11.07165476 
C      15.74679609      24.25477771      23.64237920 
C      23.26954715      24.29873959      15.30227524 
C      11.33105262      24.29979250      19.47910919 
C      17.28723258      21.38420558       8.68403352 
C      21.01200376      10.08156264      23.17590208 
C      13.49837973      10.25347522      11.23537211 
C      11.89744348      20.78140467      24.25415896 
C      22.56970327      20.72380454      10.30720885 
C       9.15897721      13.16989915      13.79747713 
C      18.47852748       9.34317524      11.21390028 
C      16.01822262       9.24936782      23.24659571 
C       8.50966326      21.01684251      20.63160329 
C      26.03272785      20.96881558      14.02115385 
C      17.15224169      21.12124242      25.97495944 
H      16.63069697      20.35207855      26.55883268 
H      16.42278607      21.69005294      25.39128724 
H      17.68927738      21.79503652      26.65299000 
C      25.34813239      12.98883010      20.66494522 
H      26.30645560      12.57689557      20.32913244 
H      24.97755696      12.41588794      21.52405927 
H      25.47285180      14.04257587      20.93860034 
C       9.71564315      11.31664860      18.59438048 
H       8.85413815      11.98515252      18.47688064 
H       9.37990923      10.34730270      18.98022608 
H      10.19764774      11.18990583      17.62040822 
H      26.62983386      15.86653984      14.19630464 
H      25.67631281      14.39388383      14.57327739 
H      27.24460262      14.68905555      15.39791655 
H      26.66198019      17.70226783      19.00335694 
H      27.26144064      18.30825125      20.58119429 
H      25.91797467      19.14686402      19.75670263 
H      26.47210882      20.64953758      13.06916644 
H      26.80136095      21.46857938      14.62242580 
H      25.19881465      21.65742314      13.83622728 
H      24.29077712      23.66209310      18.57181210 
H      23.24086010      23.35184440      19.99152086 
H      22.63898049      22.99839178      18.34951020 
H      23.31036278      25.15961351      14.62530055 
H      24.25940080      24.14093154      15.74720281 
H      22.54134720      24.48748715      16.09878485 
H      20.14490774      25.38143059      20.79104298 
H      19.93589211      25.68755885      22.54400113 
H      18.68949825      24.77277585      21.63739483 
H      20.96397597      26.39152810      15.73880303 
H      19.47908987      27.26353833      16.22049358 
H      19.38980860      25.91224592      15.04387198 
H      17.84730147      24.51040235      10.55778146 
H      19.34364237      23.52751373      10.63769260 
H      19.41014513      25.28654809      10.95428980 
H      15.17989996      27.26918480      18.69747137 
H      15.18607655      25.86081256      19.80951699 
H      13.65098872      26.43210225      19.09535617 
H      14.62222962      25.86300675      12.37653919 
H      15.88403895      24.89139009      13.19699073 
H      14.44911367      25.45002000      14.11147549 
H      10.33556098      24.18626943      19.03333817 
H      12.05957589      24.51198759      18.68867559 
H      11.31354505      25.12686746      20.19796070 
H      16.73231761      22.07825045       8.04271685 
H      17.78613100      20.62765644       8.06582736 
H      18.04284387      21.93128634       9.25486298 
H      22.87678995      20.89742058       9.26911430 
H      22.88907023      19.72527861      10.62135367 
H      23.01346315      21.48372722      10.96100139 
H      23.32335012      14.80738778      10.82231287 
H      23.60808167      15.02011736      12.57091077 
H      24.91502528      15.39918575      11.40352510 
H      20.02555760      16.55746818       7.13835954 
H      19.21073627      15.08096851       7.74979711 
H      20.59352221      15.76613365       8.64641978 
H      21.19546410      11.00494696       9.74155626 
H      20.73573268      11.17163636      11.46526212 
H      22.34596423      11.70880041      10.91781645 
H      18.98173751       9.69048611      10.30454796 
H      18.06260018       8.34437509      11.03898549 
H      19.18804766       9.30748299      12.04823501 
H      13.63661889       7.86604359      14.99404788 
H      13.34378899       9.62592865      15.10637072 
H      13.31833676       8.61574569      16.58518763 
H      12.65080869      10.00267978      10.58736037 
H      13.94260076       9.33571838      11.63863039 
H      14.25904429      10.79248709      10.66099096 
H      15.68513064      14.30913687       7.51932002 
H      16.13449591      15.61218374       8.66250061 
H      14.44705336      15.01526892       8.60901356 
H       9.52307730      12.65655853      12.89908898 
H       9.03383335      14.23946200      13.59313724 
H       8.19554725      12.74281661      14.09935532 
H      10.28866296      15.01375322       9.64032031 
H      10.39578561      16.74731768      10.08234600 
H      10.07854943      15.52145888      11.34345540 
H       7.27552437      18.37679699      14.17828864 
H       8.62610255      19.26928507      14.93540043 
H      10.74229326      21.27828120      10.28120467 
H      12.43578802      21.84021153      10.13385470 
H      11.64802976      21.79408435      11.73599548 
H      11.32700427      23.46201063      14.73403127 
H      11.91802394      23.07115790      16.37131449 
H      10.26357770      23.73051392      16.15273375 
H      21.00582565       7.89636730      15.54356025 
H      19.84217222       7.35377724      14.30337346 
H      19.28802995       7.64967806      15.98562056 
H      25.14184325      10.29531681      15.26282385 
H      24.38562127      11.09080212      16.68320311 
H      25.72223381      11.89313952      15.82722052 
H      24.15955706      16.49957518      24.53000297 
H      24.45870766      15.30493020      23.23801500 
H      24.22322635      14.75312814      24.92512599 
H      20.02376066      14.89585857      25.91370360 
H      18.82870486      14.13904619      27.01658037 
H      18.31578337      15.44610112      25.90530978 
H      15.15145885      14.92400271      26.78316165 
H      13.83139617      15.63767423      25.82115208 
H      14.32408158      16.40358490      27.36299910 
H      12.14880832      11.60952487      23.51256175 
H      13.29830624      10.86435287      24.66290567 
H      13.76356400      11.10077742      22.94932787 
H      16.42591749       8.24760751      23.42421261 
H      15.30339100       9.21559266      22.41690873 
H      15.52372669       9.60615101      24.15711172 
H      20.57254627       9.17477071      22.74371056 
H      20.25047249      10.59454242      23.77227540 
H      21.86609030       9.81601148      23.80917679 
H      14.85862212       7.23097437      20.00524251 
H      15.15815219       7.64899006      18.28624996 
H      22.10115775      21.64412941      24.50709033 
H      22.91587555      21.57079447      22.91803850 
H      23.78162897      21.03367283      24.38974372 
H      11.48562310      21.46749403      23.50505327 
H      11.55565085      21.07555099      25.25390196 
H      11.56807875      19.75839844      24.04631216 
H      15.17907758      25.18465244      23.76437520 
H      16.70182185      24.33873458      24.17482363 
H      15.16577894      23.41909753      24.05018313 
H       7.75659821      21.55271834      20.04169071 
H       9.36665858      21.67437111      20.82579021 
H       7.23899310      14.76450710      19.07581596 
H       7.84422094      15.85440816      20.35792312 
H       8.79678643      14.41194913      19.88911395 
H       9.55607719      15.39930619      23.21135540 
H      11.14852771      14.79721879      23.78037653 
H      10.84255285      14.98542504      22.03226750 
H      21.13706906       8.57273735      17.83887201 
H      20.79119100       7.78673598      19.40615005 
H      21.09956910       9.54621702      19.34136737 
H      13.50660275       7.77582689      18.97443674 
H       8.06203720      20.69644967      21.57938892 
H       7.96818982      17.80107650      15.73104460 
