322
Properties=species:S:1:pos:R:3 i=325 optimized=T E=-4244.7380425761 pbc="F F F" jobid=102_44-Ag-19_6-000004-PBE
Au      16.82429815      17.09567013      15.93019131 
Ag      17.66273199      17.05244356      18.79774059 
Ag      18.62651640      15.03839913      16.90997606 
Au      15.91056650      14.97492958      17.69567622 
Au      19.49106407      17.83167657      16.70712135 
Au      15.01116629      17.79847645      18.03390471 
Ag      17.23766612      19.58579144      17.37409326 
Au      17.83283307      15.17517241      13.95344497 
Au      16.63770867      14.98042980      20.63659337 
Au      18.20569850      19.56219501      20.29385171 
Au      16.25585572      19.65528681      14.49884753 
Ag      19.42473876      14.98843540      19.90112650 
Ag      15.08137046      15.05363984      14.76762618 
Au      18.64613858      17.97789647      13.76294045 
Au      15.85358774      17.86570288      21.01051674 
Au      20.40097026      17.76157244      19.58292894 
Au      14.06944106      17.81653285      15.11120613 
Au      21.37372081      15.77259419      17.71757185 
Au      13.14156783      15.69928891      16.90977757 
Au      13.92360649      15.70310500      19.82952675 
Ag      20.57546996      15.87132560      14.79758374 
Au      15.41679291      20.32305080      19.52135423 
Au      19.07283196      20.42108386      15.26428406 
Au      20.01154813      20.41420320      18.13509178 
Au      14.45534020      20.43202863      16.70197685 
Au      17.65297116      12.78023086      18.77490191 
Au      16.85807773      12.86494180      15.73405905 
Ag      15.96754838      17.21230419      12.96441396 
Au      18.51814381      17.03073005      21.74494977 
Au      19.68862717      13.10882783      15.07968959 
Au      14.82041847      12.92289185      19.36319610 
Au      13.09015384      18.50031769      20.11427661 
Au      21.42567081      18.61603756      14.64598641 
Au      20.39251562      13.04016245      17.92817500 
Ag      14.08160236      12.99679153      16.57958047 
Au      22.20732040      18.62464446      17.41223092 
Au      12.30285044      18.57178609      17.34803430 
Au      17.66736178      22.09379454      18.77215531 
Au      16.72838389      22.17520576      16.10066143 
Au      20.42265907      19.29958392      22.09813844 
Au      14.02591264      19.46631876      12.70692717 
Au      18.68169691      14.28360869      22.61880236 
Ag      15.69242614      14.50955650      11.99045030 
Au      17.36244535      19.41267253      11.68357349 
Au      17.18098097      19.29487085      23.08689691 
Ag      18.22450919      16.37479922      11.30805907 
Au      16.22991062      15.99337704      23.30077714 
Au      21.34949277      16.36861533      21.84941433 
Au      13.20974572      16.43776426      12.81141485 
Au      23.25267728      16.61264044      15.62999720 
Au      11.29886193      16.46606564      19.05772500 
Au      22.39356569      13.83322390      15.98309653 
Ag      12.08523280      13.69768512      18.63007622 
Ag      14.87996898      22.85447332      18.34237372 
Au      19.52351253      22.86602202      16.59757759 
Au      17.72435499      12.54528841      12.94233662 
Au      16.69124300      12.25397086      21.52688542 
Au      20.10373723      14.39081031      12.45315281 
Au      14.27318540      14.02919009      22.03146202 
Au      21.79990087      21.16710886      16.04163334 
Au      12.66275785      21.07377810      18.83977745 
Au      13.60973008      16.97861048      22.50364688 
Ag      20.89888598      17.29726991      12.16062183 
Au      22.27782472      19.99628071      19.96522177 
Au      12.15379247      20.02647145      14.86938040 
Au      19.97013705      21.85211537      20.54325765 
Au      14.43563026      21.94900005      14.36158644 
Au      15.76644050      10.84850294      17.44991583 
Au      18.74076309      10.90264452      16.86478633 
Au      22.10609411      14.15856301      20.07019241 
Ag      12.40244940      14.18533945      14.50927006 
Au      16.94735404      21.78934128      21.55138281 
Au      17.48197097      21.88015106      13.29960862 
Au      19.69400163      12.19689772      20.63965091 
Ag      14.82931728      12.29184032      13.84072089 
Au      23.22101246      16.88178912      19.52450289 
Au      11.29583299      16.88555228      15.17785150 
Au      20.11243872      20.29498189      12.67032323 
Au      14.38548087      20.20632360      22.10649162 
Au      20.64947194      23.27677381      13.70535566 
Au      13.77029767      23.20051008      21.18763207 
Au      24.75376496      14.50265133      17.91552862 
Au       9.84129117      14.43795296      16.70483766 
Au      17.06501914      24.98392210      17.45798256 
Au      21.46233154      10.79952355      14.71219555 
Au      12.95666442      10.70709587      19.66228905 
Ag      16.55780402       9.88585820      13.75254229 
Ag      18.10802612       9.72591395      20.43284669 
Au      10.34191342      18.20828252      21.27891626 
Au      24.21333232      18.43828509      13.52573227 
Ag      24.43507745      20.45698756      17.11659068 
Ag      10.03168855      20.33754931      17.75037963 
Au      23.71247362      18.51887297      22.24332961 
Au      10.78058742      18.55873869      12.50594248 
S      19.41952139       9.63737207      14.66953403 
S      14.98074689       9.51206608      19.48755554 
Au      14.64623297      18.68356200      24.89654628 
Au      19.85409371      18.95609678       9.77295586 
Ag      18.39003440      13.53555714      10.10738730 
Au      16.08297585      13.07841236      24.48358000 
Au      19.16554220      22.06569144      23.57855928 
Au      15.24772236      22.14840991      11.29041632 
S      18.57040081      24.02990352      12.88208175 
S      15.84907517      23.93827119      22.01692207 
S      24.14836514      12.89789778      19.53768502 
S      10.42062720      12.78096955      15.13267412 
Au      12.72600132      13.31661496      11.69711639 
Au      21.76494035      13.27690050      22.92737942 
S       9.02814186      16.01922494      18.25864285 
S      25.55224511      16.07033414      16.35034376 
S      11.24463994      17.03671328      23.14008520 
S      23.35072790      17.34746260      11.60964989 
S      22.82672088      22.73303254      14.44285189 
S      11.61092891      22.65960449      20.40583850 
S      22.21574285      19.49202094      23.78723094 
S      12.25162173      19.61789867      10.99515635 
S      19.10734309       8.93725497      18.41142768 
S      15.66362000       8.94153400      15.75616381 
S      16.00960261      13.58955070       9.68539809 
S      18.43252126      13.11135112      24.78153960 
S      18.30733442      20.37199515      24.97857095 
S      16.13668890      20.49970324       9.85387577 
S      24.17826051      21.41011841      19.36082788 
S      10.20749230      21.35155900      15.52453997 
S      14.72088481      25.22267586      17.57401776 
S      19.42133225      25.17827718      17.35166174 
S      17.15162977      10.63762538      11.51899374 
S      17.34740350      10.20175958      22.68354058 
S      15.90115902      16.82553229      25.60970286 
S      18.57850235      17.17491474       8.93285604 
S      22.03380972      15.35546402      23.98775614 
S      12.45516267      15.42672663      10.69578563 
S      23.48444318      12.02212352      14.73277623 
S      10.92516676      11.87694487      19.90336370 
S      13.71668805      13.09940956      24.21457256 
S      20.84867622      13.59468202      10.28647802 
S      21.50612740      11.14609180      21.95355921 
S      12.93256153      11.16186381      12.61167161 
S      20.46657468      23.53902236      22.23541373 
S      13.93941368      23.60466611      12.64611463 
S      25.18767336      17.20659099      20.93254363 
S       9.32901885      17.16551638      13.76100624 
S      13.64715844      20.76670274      24.36880407 
S      20.84789888      20.99844104      10.44586293 
S      25.56168465      19.55340360      15.13779839 
S       8.95975091      19.36209427      19.72990438 
C      18.80691367      14.34435333      26.08403219 
C      15.59618656      14.89827527       8.46768662 
C      23.43202793      23.06915703      19.12843475 
C      10.89790021      23.03151704      15.77909519 
C      20.91867719       8.95262936      18.70957468 
C      13.87368588       8.69027265      15.44057215 
C      10.64785360      15.31747580      22.92438506 
C      23.92655461      15.61257695      11.74552390 
C       8.18824763      15.05125104      19.57093925 
C      26.31428745      15.09259958      14.99939179 
C      22.76203195      21.23789261      23.90119344 
C      11.64533614      21.34587994      10.91284601 
C      14.48224738      26.35938814      18.99981574 
C      19.70121966      26.30014464      15.92416980 
C      23.84031228      15.52958125      24.25849548 
C      10.64543304      15.61471869      10.45491676 
C      19.74227984      16.15208372       7.95006807 
C      14.69185744      15.78007050      26.50708503 
C      19.46377200      25.00630147      21.78583590 
C      14.93356702      25.08001452      13.08848215 
C      21.52379823      11.92380755      10.63897402 
C      13.15182811      11.38868250      23.87329409 
C      24.53065906      11.15199123      15.96698758 
C      19.77828097       7.89414544      15.10157263 
C      14.54123970       7.81706939      18.93300614 
C      26.33702110      18.32020756      20.03995478 
C       8.15366802      18.22704904      14.68421914 
C      18.81926136      24.24415652      11.07901420 
C      15.59731240      24.11052925      23.82452698 
C      23.38243275      24.20021772      15.39525865 
C      11.05739914      24.13511355      19.46592997 
C      17.29867270      21.34875457       8.71855901 
C      20.82029673      10.11949157      23.30840972 
C      13.57982693      10.15427870      11.21905359 
C      11.82537583      20.58038616      24.41754505 
C      22.67145720      20.83794729      10.36283530 
C       9.18131167      12.96865108      13.79000470 
C      18.64373504       9.68057403      11.05287028 
C      15.91632079       9.10495385      23.00456296 
C       8.36775761      20.82401790      20.66539657 
C      26.14995333      21.05015655      14.25629609 
C      17.08986434      21.15958506      26.09910413 
H      16.59768887      20.35507418      26.65981779 
H      16.33541735      21.72900307      25.55016196 
H      17.63613111      21.81759248      26.78479236 
C      25.32610941      13.17111767      20.91692154 
H      26.29048389      12.72937401      20.63965064 
H      24.91985527      12.66032466      21.79887714 
H      25.45250263      14.23908653      21.12445468 
C       9.78029809      11.07203280      18.71064143 
H       8.88588608      11.70318018      18.64132743 
H       9.50649433      10.08366781      19.09551095 
H      10.22430911      10.98338903      17.71450780 
H      26.54389613      15.79124562      14.18503104 
H      25.63558398      14.31219644      14.63893213 
H      27.24103203      14.64303650      15.37402374 
H      26.71910324      17.77659979      19.16799039 
H      27.16084551      18.56788359      20.71958926 
H      25.83817415      19.23897897      19.71687914 
H      26.68505488      20.73649000      13.35269460 
H      26.84112508      21.58213946      14.92111650 
H      25.31346178      21.70484926      13.98512146 
H      24.20104778      23.73384552      18.71798005 
H      23.10438248      23.44037142      20.10645098 
H      22.57073830      23.02330966      18.45132246 
H      23.53952399      25.03094226      14.69765648 
H      24.33167864      23.94207105      15.88110407 
H      22.64596393      24.47959711      16.15534322 
H      19.92694153      25.46746279      20.90550045 
H      19.48994371      25.70554446      22.62977427 
H      18.42863086      24.73306148      21.55567917 
H      20.77256360      26.28730223      15.69124086 
H      19.39834586      27.31039091      16.22251312 
H      19.13540000      25.97859724      15.04457658 
H      17.82804547      24.30837688      10.61326495 
H      19.38239907      23.40483746      10.65638067 
H      19.36904549      25.17885376      10.91732933 
H      14.84966377      27.35425139      18.72532254 
H      15.00098396      25.99774579      19.89304057 
H      13.40602022      26.41017137      19.20473792 
H      14.90120451      25.77601689      12.24209108 
H      15.97057444      24.81308148      13.31771819 
H      14.46936655      25.54081848      13.96857521 
H      10.11339726      23.87783390      18.96989270 
H      11.79981671      24.42719112      18.71554141 
H      10.89029245      24.95637595      20.17231270 
H      16.71557990      22.01405520       8.07130743 
H      17.78809478      20.57216965       8.11744232 
H      18.05775130      21.91940109       9.26006697 
H      22.97715612      21.02920365       9.32749505 
H      23.00723338      19.84249589      10.66862925 
H      23.10152761      21.59670410      11.02690281 
H      23.44008116      15.04726042      10.94109655 
H      23.64390459      15.17791686      12.71143026 
H      25.01454247      15.58672248      11.62083049 
H      20.04424795      16.72346663       7.06537337 
H      19.20305190      15.24740753       7.64040990 
H      20.62344051      15.86246146       8.52977961 
H      21.46424498      11.32228802       9.72448773 
H      20.97868241      11.43082421      11.45001629 
H      22.57318454      12.03978665      10.93418501 
H      19.13682009      10.18960167      10.21694429 
H      18.30839467       8.68782880      10.72927556 
H      19.33075086       9.57955925      11.90000519 
H      13.76003941       7.81600252      14.78851856 
H      13.41927045       9.56427587      14.96117826 
H      13.37145498       8.49769705      16.39537476 
H      12.74519068       9.91663596      10.55017388 
H      13.99411225       9.23102132      11.64236922 
H      14.36621784      10.68112939      10.66941859 
H      15.80569820      14.50982042       7.46422505 
H      16.17738898      15.81157796       8.63641649 
H      14.52665639      15.12219578       8.55967129 
H       9.56459497      12.42115513      12.92000878 
H       9.03439766      14.02260044      13.53103108 
H       8.23137034      12.53094041      14.11694752 
H      10.34148578      14.93404387       9.65134355 
H      10.45864555      16.65529086      10.16176809 
H      10.08864742      15.38958291      11.36885442 
H       7.31492912      18.45715707      14.01667444 
H       8.62572678      19.15724749      15.01485347 
H      10.67735595      21.34213636      10.39884438 
H      12.37645372      21.92567276      10.33549966 
H      11.53669821      21.78087171      11.91113647 
H      11.19327711      23.43448484      14.80348262 
H      11.77343145      23.00278083      16.43826728 
H      10.11473077      23.66076995      16.21752788 
H      20.49133882       7.47988897      14.38129018 
H      18.82555029       7.35321857      15.04078553 
H      20.16589393       7.80854069      16.12184919 
H      24.89127800      10.22131701      15.51441324 
H      23.97621267      10.93754305      16.88516229 
H      25.37688416      11.80799431      16.20602306 
H      24.02767167      16.56334906      24.57466711 
H      24.40744252      15.32050910      23.34724570 
H      24.13279304      14.83231900      25.05199291 
H      19.88097414      14.56155864      26.03088403 
H      18.56254593      13.89772338      27.05489476 
H      18.23538252      15.26776541      25.93968543 
H      15.18258934      14.82468390      26.73354865 
H      13.79782849      15.59168854      25.90573370 
H      14.42070723      16.29681444      27.43476816 
H      12.08773542      11.44448140      23.61428649 
H      13.28211167      10.78511867      24.77871883 
H      13.70152397      10.94859725      23.03634373 
H      16.30546686       8.09193998      23.16207802 
H      15.21812324       9.10418514      22.16029911 
H      15.41529005       9.44879420      23.91619815 
H      20.39839596       9.21069992      22.86281952 
H      20.03883656      10.64972533      23.86209801 
H      21.64889919       9.86084421      23.97795790 
H      15.23774719       7.52609182      18.13636043 
H      13.51310972       7.77012563      18.56395037 
H      22.01386216      21.78115932      24.49216487 
H      22.85222209      21.69512245      22.91096039 
H      23.73155099      21.25745372      24.41194400 
H      11.39364744      21.42794103      23.87236275 
H      11.50816487      20.60878923      25.46643282 
H      11.50069888      19.64227442      23.95734162 
H      15.04076975      25.03703970      24.00833234 
H      16.58828572      24.17100439      24.29149844 
H      15.04155755      23.25677198      24.22763670 
H       7.64901899      21.35749007      20.03163355 
H       9.19797745      21.48980464      20.92896663 
H       7.25902791      14.64112472      19.15896686 
H       7.95731466      15.74685617      20.38755643 
H       8.82707633      14.24151031      19.93996058 
H       9.56103829      15.31050525      23.06447444 
H      11.13240549      14.70313218      23.69262972 
H      10.90791732      14.93138674      21.93228384 
H      21.43312780       8.87659094      17.74299716 
H      21.17422832       8.08586925      19.33059263 
H      21.23640790       9.87168075      19.21400932 
H      14.65082697       7.14577362      19.79299523 
H       7.86287725      20.47792124      21.57438164 
H       7.79914880      17.65888366      15.55214277 
