322
Properties=species:S:1:pos:R:3 i=284 optimized=T E=-4206.9256795124 pbc="F F F" jobid=102_44-Ag-09_8-000002-PBE
Au      16.86601029      17.08352736      15.84272268 
Au      17.71901291      17.02318568      18.72849097 
Au      18.65294197      14.98966859      16.85315132 
Au      15.88878357      14.96301914      17.62138367 
Au      19.55825059      17.80327593      16.61533658 
Au      15.04061624      17.77954140      17.97292240 
Au      17.31748115      19.57991143      17.33486103 
Au      17.90898624      15.08094902      13.92817568 
Au      16.65710465      15.01608273      20.59607762 
Au      18.26640424      19.58334613      20.19995344 
Au      16.32909748      19.63458303      14.42033363 
Au      19.46314523      14.95106781      19.88780778 
Au      15.09338219      15.05295053      14.66417458 
Au      18.65338022      17.97918252      13.63004975 
Au      15.93308438      17.89868604      20.93146032 
Au      20.47292495      17.74163657      19.52644429 
Au      14.10400818      17.84485964      15.05670229 
Au      21.41106379      15.73985862      17.66397448 
Ag      13.16983126      15.74978810      16.89022307 
Au      13.94423487      15.72355989      19.79504316 
Au      20.63239847      15.79010261      14.70978080 
Au      15.45745545      20.36821776      19.45848987 
Au      19.14321435      20.39514298      15.17784521 
Au      20.08635466      20.40613363      18.04239646 
Au      14.52033308      20.39731498      16.63598827 
Au      17.66940492      12.75300870      18.73049098 
Au      16.87822133      12.83131534      15.67949565 
Au      15.96778462      17.17819784      12.84577831 
Au      18.60852275      17.05846976      21.73727470 
Au      19.72652287      12.99279416      15.07089676 
Au      14.85107049      12.92836238      19.35841973 
Au      13.16747569      18.53680209      20.05874976 
Au      21.42978705      18.59116085      14.53774176 
Au      20.41758672      12.96292920      17.89430552 
Ag      14.08150561      12.97378558      16.56238691 
Au      22.26455013      18.58133962      17.29940174 
Au      12.33724511      18.58558180      17.33059067 
Ag      17.77335033      22.14894321      18.67366584 
Au      16.85222432      22.15027149      15.98564865 
Au      20.48874096      19.31429761      22.02552251 
Ag      14.09191325      19.49562051      12.58315486 
Au      18.77454897      14.26475132      22.55539672 
Au      15.81617309      14.42371668      11.94612184 
Au      17.28685588      19.42958286      11.58479175 
Au      17.27259499      19.31223334      23.01279966 
Au      18.27048835      16.18469420      11.29004752 
Au      16.30319979      16.07821269      23.25795733 
Au      21.43744086      16.38057129      21.80984310 
Au      13.14268620      16.57238090      12.73332083 
Au      23.25625991      16.50308195      15.52446690 
Au      11.33060452      16.46966360      19.03143916 
Au      22.43979316      13.73748551      15.98118612 
Au      12.13905302      13.73449299      18.64783929 
Au      14.95398041      22.80980075      18.14403303 
Au      19.64919476      22.83781973      16.48750917 
Ag      17.83142724      12.37509865      12.91754611 
Au      16.71345189      12.29479847      21.50117590 
Au      20.21100317      14.19128557      12.44874223 
Au      14.35596899      14.09483857      22.03408187 
Au      21.89425691      21.11954494      15.90293196 
Ag      12.71578150      21.10105385      18.85015077 
Au      13.68614348      17.05542721      22.45307641 
Au      20.89688164      17.16064915      12.09079523 
Au      22.34104010      19.92089550      19.85329290 
Au      12.23319498      20.02978150      14.84911630 
Au      20.04798917      21.84344100      20.43616388 
Au      14.49876279      21.89722516      14.28157142 
Au      15.87714681      10.85665679      17.44632509 
Ag      18.79379756      10.78164042      16.84241502 
Au      22.13600028      14.13233093      20.00900046 
Au      12.44663803      14.25412836      14.52489616 
Au      17.03221535      21.79710338      21.44880985 
Au      17.52768137      21.87545276      13.18888138 
Au      19.73841075      12.12876885      20.58550126 
Au      14.79922661      12.30288548      13.80742939 
Au      23.29056830      16.84520314      19.42731469 
Au      11.33466348      16.99649885      15.12231313 
Au      20.11136760      20.32403690      12.57132595 
Ag      14.49301781      20.17917244      22.08056296 
Au      20.69176980      23.27146477      13.56743969 
Ag      13.97425815      23.00886984      20.98939262 
Au      24.79608033      14.53663636      17.87577783 
Au       9.79261207      14.65570253      16.62474254 
Au      17.28789115      24.99230262      17.36411190 
Au      21.50681911      10.68582802      14.80184864 
Au      13.06528267      10.57630542      19.43762619 
Au      16.25516013       9.77031195      13.68152246 
Au      18.33792137       9.55893316      20.53248151 
Au      10.43385360      18.30353440      21.23154262 
Au      24.15507466      18.36484696      13.39674721 
Au      24.56612537      20.39898669      16.95586841 
Ag      10.10766571      20.41236808      17.70293042 
Au      23.77829447      18.52674624      22.15773721 
Au      10.81366354      18.70648536      12.47033872 
S      19.47947955       9.52093727      14.65106352 
S      15.13805362       9.48098683      19.51010187 
Au      14.69816536      18.82047333      24.81110850 
Au      19.82657064      18.89509926       9.73766275 
Au      18.38534092      13.28339366      10.00878907 
Au      16.13431697      13.15493281      24.46853632 
Au      19.28225297      22.08590942      23.47335504 
Au      15.26700843      22.19285358      11.21031208 
S      18.60477308      24.03960469      12.78257387 
S      16.02851278      23.97229652      21.86993235 
S      24.21689035      12.94664411      19.52420789 
S      10.34578656      13.08666680      14.94962730 
Au      12.68562127      13.50676424      11.58387805 
Au      21.84002365      13.30021883      22.89465742 
S       9.02083613      16.17784050      18.24992013 
S      25.56378349      16.06835792      16.25383133 
S      11.32063911      17.12792614      23.09953778 
S      23.27702315      17.24769703      11.48823532 
S      22.86932054      22.69493426      14.25956049 
S      11.63358446      22.72560099      20.40691409 
S      22.29679977      19.51946381      23.70282910 
S      12.22325422      19.75977716      10.90894905 
S      19.19404691       8.82296938      18.48680756 
S      15.46726958       9.00125240      15.74780978 
S      16.03605613      13.36834007       9.73643840 
S      18.48171314      13.19521956      24.74533015 
S      18.39038273      20.42608753      24.89180427 
S      16.13888752      20.56563523       9.73920021 
S      24.24117923      21.31162625      19.13454379 
S      10.33588466      21.45176661      15.50408555 
S      14.93875712      25.16891750      17.51040471 
S      19.63750959      25.15503305      17.24479627 
S      17.05449112      10.38171121      11.55061429 
S      17.47865878      10.25047466      22.62493917 
S      15.92871065      16.94334300      25.54708677 
S      18.58664393      17.04572910       8.98077031 
S      22.10709615      15.38340250      23.95271256 
S      12.47615979      15.61836888      10.57406804 
S      23.55434125      11.87572698      14.85475354 
S      11.00076040      11.72380037      19.47325936 
S      13.76735569      13.13936084      24.19814713 
S      20.74933128      13.22369211      10.27839296 
S      21.60648817      11.17544482      21.90980419 
S      12.88617178      11.35516037      12.52040690 
S      20.59859225      23.53067185      22.11061655 
S      13.98139313      23.61078671      12.62363710 
S      25.24070304      17.19115727      20.86054754 
S       9.33896431      17.33674900      13.73203451 
S      13.70640777      20.91716275      24.32673731 
S      20.81144303      20.96890063      10.32040668 
S      25.54783991      19.48388406      14.97870038 
S       9.04419563      19.44810543      19.68290713 
C      18.86106146      14.46426936      26.01130869 
C      15.66763611      14.66675776       8.49763993 
C      23.50477948      22.97075538      18.88967377 
C      11.07415237      23.10959084      15.76959451 
C      21.01633799       8.79739081      18.71042751 
C      13.63955784       8.96621520      15.58407421 
C      10.72148259      15.41140637      22.86807312 
C      23.86021776      15.51945876      11.66603481 
C       8.17442180      15.16751675      19.52565123 
C      26.33382247      15.04613832      14.93980559 
C      22.86100599      21.25838993      23.83195106 
C      11.62162977      21.49170232      10.85602804 
C      14.67042066      26.23850537      18.98030431 
C      19.91802299      26.27508520      15.81507963 
C      23.91074429      15.56018064      24.23907628 
C      10.68206935      15.84753050      10.26482325 
C      19.80797546      16.02165005       8.07466104 
C      14.68984907      15.91399756      26.42320296 
C      19.61865780      25.01996840      21.68749585 
C      14.98768583      25.06960543      13.09209571 
C      21.22511431      11.48553817      10.62068788 
C      13.25438856      11.41758041      23.82764588 
C      24.54050922      11.03606508      16.15670545 
C      19.84904063       7.77094440      15.06355891 
C      14.85146153       7.74168132      19.00764780 
C      26.41290880      18.27567131      19.96347818 
C       8.18661081      18.41251520      14.66607175 
C      18.84201522      24.28239397      10.98121987 
C      15.76974584      24.17960804      23.67395794 
C      23.48942955      24.14896771      15.19061175 
C      11.18245535      24.24799753      19.48202571 
C      17.34435647      21.41110857       8.64798247 
C      20.96113420      10.11832365      23.26047254 
C      13.49680083      10.31817296      11.13828302 
C      11.88313644      20.71852811      24.35772785 
C      22.63400649      20.79654289      10.24358600 
C       9.20778507      13.44971348      13.55955927 
C      18.37484249       9.17088869      11.16399142 
C      16.08809979       9.12674189      23.01797239 
C       8.44965427      20.91609926      20.60491238 
C      26.12541197      20.96819618      14.07341183 
C      17.17833362      21.24921651      25.99258887 
H      16.67318349      20.46134144      26.56509465 
H      16.43365398      21.81921692      25.43127052 
H      17.73109797      21.91129882      26.66910200 
C      25.37093054      13.25989819      20.91332623 
H      26.34414737      12.82599557      20.65522961 
H      24.95895197      12.75794690      21.79782471 
H      25.48068759      14.33293473      21.10406137 
C      10.03745636      11.01923698      18.07920428 
H       9.18888540      11.68762551      17.88919024 
H       9.67729423      10.02963521      18.38293590 
H      10.63828609      10.93990122      17.16866479 
H      26.54381930      15.71015872      14.09201308 
H      25.66881308      14.23560562      14.62283168 
H      27.27248715      14.63321657      15.32691221 
H      26.82840744      17.69603072      19.13073149 
H      27.21070210      18.56024585      20.65934291 
H      25.92049807      19.17290071      19.57706519 
H      26.63358917      20.62900409      13.16328342 
H      26.83694532      21.50025544      14.71563202 
H      25.28561879      21.62286395      13.81226722 
H      24.26327532      23.62367783      18.44346034 
H      23.21613230      23.35097165      19.87690300 
H      22.61749008      22.91618524      18.24733419 
H      23.64976789      24.97575278      14.48914022 
H      24.44380158      23.86388108      15.65085526 
H      22.78286590      24.44768902      15.97145879 
H      20.04135068      25.45063425      20.77219036 
H      19.71901651      25.73258867      22.51472414 
H      18.56174483      24.77520579      21.53007825 
H      20.98664778      26.24554894      15.57179082 
H      19.63410878      27.28945884      16.11782684 
H      19.33891345      25.96167233      14.94117770 
H      17.84854849      24.35360370      10.52139653 
H      19.40286904      23.44945106      10.54315854 
H      19.39096223      25.21930074      10.82992403 
H      14.98141240      27.25678932      18.72050919 
H      15.23473067      25.87853755      19.84651090 
H      13.59831856      26.22756532      19.20989740 
H      14.95193810      25.78584448      12.26288359 
H      16.02553899      24.79282519      13.30568181 
H      14.53251934      25.51246370      13.98594671 
H      10.18786880      24.10036113      19.04360095 
H      11.89911866      24.45688921      18.68099314 
H      11.14726689      25.09352406      20.17855723 
H      16.78909851      22.08981525       7.99029004 
H      17.84292344      20.63443063       8.05463657 
H      18.09428529      21.96573535       9.21769393 
H      22.94094879      20.91090669       9.19740044 
H      22.96541457      19.82501294      10.62220224 
H      23.06751353      21.59903493      10.85186593 
H      23.37774505      14.92778381      10.87886068 
H      23.58747028      15.11267625      12.64670903 
H      24.94813914      15.50637039      11.53523815 
H      20.09156095      16.55805952       7.16197783 
H      19.32039095      15.07176935       7.81986301 
H      20.69426347      15.81976357       8.68326138 
H      21.10850435      10.90235686       9.70017712 
H      20.61902262      11.05617041      11.42432088 
H      22.27817083      11.48977678      10.92590175 
H      18.87600551       9.51609999      10.25204054 
H      17.91223380       8.19504336      10.97842588 
H      19.09324762       9.09556719      11.98803554 
H      13.35975962       8.07960777      15.00298718 
H      13.26799640       9.86776597      15.08439775 
H      13.20673018       8.90514433      16.59133964 
H      12.64412882      10.10052715      10.48478402 
H      13.89498025       9.39056903      11.56725429 
H      14.28877752      10.82143419      10.57481848 
H      15.89573199      14.25955353       7.50571541 
H      16.25463518      15.57422075       8.67617544 
H      14.59739498      14.89592640       8.57268727 
H       9.62465988      12.97153688      12.66422812 
H       9.10747030      14.52912641      13.40164761 
H       8.22938133      13.01548722      13.79660638 
H      10.39189009      15.17816233       9.44681505 
H      10.53234591      16.89364072       9.97035370 
H      10.08685872      15.63176077      11.15632246 
H       7.34535324      18.65599163      14.00641925 
H       8.67420444      19.33601059      14.99323225 
H      10.63136788      21.50364354      10.38748461 
H      12.32998965      22.06715183      10.24706592 
H      11.56488025      21.92933506      11.85738051 
H      11.35238035      23.51919940      14.79150864 
H      11.96791212      23.05195178      16.40176715 
H      10.31981301      23.75069483      16.23979788 
H      20.64629334       7.39220123      14.41600059 
H      18.92407194       7.21061908      14.87671292 
H      20.12311152       7.65271986      16.11691119 
H      24.90293576      10.08554200      15.74892965 
H      23.94828500      10.85987952      17.05935022 
H      25.38756557      11.68687305      16.40628635 
H      24.09401306      16.59559817      24.55211950 
H      24.48652777      15.34723421      23.33421809 
H      24.19655519      14.86725813      25.03882003 
H      19.93558864      14.67662364      25.94899731 
H      18.61798162      14.04373489      26.99406460 
H      18.29049775      15.38406771      25.84323098 
H      15.16801682      14.95819752      26.67323643 
H      13.81072228      15.72571684      25.79987409 
H      14.39619055      16.44104899      27.33819603 
H      12.19281729      11.44615602      23.55439999 
H      13.38714398      10.80754998      24.72842561 
H      13.83030909      11.00228252      22.99529291 
H      16.50644878       8.13385072      23.22051468 
H      15.37871494       9.07290397      22.18499172 
H      15.59801532       9.50998399      23.92032317 
H      20.55813407       9.20529512      22.80521977 
H      20.17024266      10.62185798      23.82523387 
H      21.80176793       9.87443245      23.92033744 
H      15.82541977       7.23911876      19.06521472 
H      14.47337032       7.66474045      17.98368028 
H      22.12252470      21.80141877      24.43524836 
H      22.94560775      21.72843146      22.84763481 
H      23.83498537      21.26354577      24.33451807 
H      11.45354036      21.58180767      23.83552039 
H      11.54796375      20.70753379      25.40080951 
H      11.56520543      19.79839677      23.85794083 
H      15.25639019      25.13590978      23.83148483 
H      16.74968136      24.20022415      24.16638082 
H      15.16022711      23.36638418      24.08364250 
H       7.70818884      21.42485296      19.97706283 
H       9.27803640      21.59861091      20.83365129 
H       7.22757333      14.80450943      19.10954047 
H       7.97528845      15.82651257      20.38006288 
H       8.79462229      14.32251374      19.84170801 
H       9.63364981      15.40585618      23.00032674 
H      11.19910369      14.79009984      23.63514558 
H      10.98806517      15.03290708      21.87433973 
H      21.47369416       8.68795543      17.71855863 
H      21.28991516       7.94229023      19.33879887 
H      21.37333124       9.72547548      19.17006890 
H      14.14923570       7.27430491      19.70622184 
H       7.97126167      20.57743691      21.53072405 
H       7.83094098      17.84912785      15.53666122 
