322
Properties=species:S:1:pos:R:3 i=297 optimized=T E=-4286.3509496041 pbc="F F F" jobid=102_44-Ag-30_4-000009-PBE
Au      16.92908408      17.03772488      15.91758854 
Au      17.74566342      17.03047647      18.78251889 
Ag      18.70195652      14.96578585      16.95452651 
Au      15.94385056      14.97359208      17.68933129 
Ag      19.60077211      17.78776561      16.68426462 
Au      15.07755177      17.81445869      18.01922926 
Au      17.35134387      19.54382645      17.38084378 
Ag      17.88989838      15.06602976      14.04419296 
Au      16.68907950      15.04166369      20.68163562 
Ag      18.27194774      19.58344932      20.23319717 
Au      16.40166634      19.58668133      14.49831900 
Au      19.51991458      14.96141717      19.90066667 
Ag      15.10515440      15.03812334      14.78662954 
Au      18.70095001      17.88776348      13.69013878 
Au      15.91561992      17.94295568      21.00080586 
Au      20.46370240      17.76788742      19.55972392 
Au      14.12894820      17.81681122      15.10662670 
Au      21.40374737      15.72963047      17.71992950 
Au      13.19513607      15.79692820      16.98397834 
Au      13.96975058      15.80814645      19.88137942 
Ag      20.62958497      15.76609065      14.84064007 
Au      15.49899023      20.36734219      19.49287927 
Au      19.16199542      20.33553695      15.21176171 
Au      20.14259205      20.40364805      18.04841528 
Ag      14.57579539      20.41759264      16.66984721 
Au      17.66845216      12.78126454      18.76056460 
Au      16.85186335      12.80661024      15.82940449 
Au      16.03733962      17.09166874      12.94945562 
Au      18.60288029      17.08071505      21.75049840 
Au      19.69677152      13.01198329      15.14708220 
Au      14.83934175      13.01880051      19.45494216 
Au      13.18247654      18.57619379      20.13155486 
Au      21.46063321      18.50439491      14.64112494 
Ag      20.43453669      12.93016679      17.92588627 
Ag      14.07889331      13.00005418      16.67557128 
Ag      22.29100198      18.58584767      17.36823644 
Au      12.39827814      18.67475811      17.37697111 
Au      17.86365661      22.12045399      18.70097232 
Au      16.90445486      22.10752412      16.01388437 
Au      20.51462035      19.24482024      22.07031325 
Ag      14.19919509      19.41248508      12.62864242 
Au      18.84207820      14.30482463      22.58534307 
Ag      15.78863639      14.39942315      12.03707828 
Au      17.37310185      19.36347277      11.66055633 
Au      17.30698214      19.36546350      23.02691825 
Ag      18.27452899      16.16715364      11.31170251 
Au      16.28270655      16.14441129      23.29803080 
Ag      21.40293741      16.31310357      21.89337216 
Au      13.21976023      16.41966827      12.82427356 
Au      23.29958934      16.50184479      15.69039292 
Ag      11.31771380      16.58499700      19.06077220 
Ag      22.42507277      13.73739105      16.00610267 
Au      12.10537858      13.82349531      18.64410687 
Au      15.05850413      22.82668310      18.22802467 
Ag      19.68734559      22.84765680      16.42853233 
Au      17.75556766      12.40020258      13.05517624 
Au      16.72274706      12.33376068      21.54779634 
Au      20.13854625      14.20554448      12.55511599 
Au      14.32034373      14.19300933      22.11337210 
Au      21.87931465      21.07499280      15.87054672 
Au      12.77476262      21.16766299      18.91738879 
Ag      13.61820481      17.11540271      22.55165310 
Au      20.93223201      17.07756517      12.21342706 
Au      22.36154624      19.88919781      19.90278883 
Au      12.34856056      20.02749587      14.83796224 
Au      20.09006147      21.79773964      20.48597482 
Au      14.67147287      21.84259357      14.22762703 
Ag      15.73427604      10.80614891      17.66855567 
Ag      18.71652855      10.80116367      16.94597133 
Au      22.15469919      14.05281747      19.98566555 
Au      12.41755712      14.27201119      14.64061663 
Au      17.02887035      21.83168692      21.49197270 
Ag      17.59493262      21.83512989      13.19748305 
Au      19.70032143      12.14973141      20.62622567 
Au      14.79518234      12.28743074      13.94964506 
Au      23.22314071      16.86530263      19.55406467 
Ag      11.32938141      16.98301403      15.23529832 
Ag      20.15010174      20.23393575      12.61578309 
Ag      14.53681269      20.25045868      22.12667073 
Au      20.70867615      23.26304820      13.56909824 
Ag      14.10216725      23.14317194      21.07699671 
Ag      24.63693370      14.59648986      18.02119922 
Au       9.75631102      14.71761278      16.78536096 
Au      17.51759051      24.94338547      17.38648437 
Au      21.60554923      10.76863306      14.95853431 
Ag      12.89962566      10.87682488      19.67591777 
Au      16.25277531       9.68639824      13.90343531 
Au      18.24623092       9.59577838      20.60561196 
Ag      10.45543790      18.43656819      21.17815772 
Au      24.17393047      18.26696586      13.44626827 
Au      24.57744352      20.38066021      16.95547344 
Ag      10.19657236      20.54981255      17.63591676 
Au      23.76550855      18.44853892      22.25831988 
Au      10.89780906      18.59534103      12.55669967 
S      19.56172928       9.62247099      14.80081950 
S      14.86560175       9.52709243      19.73167602 
Au      14.63249359      18.90872199      24.84636020 
Au      19.92162238      18.86067686       9.83462252 
Au      18.32320676      13.34725999      10.08190597 
Au      16.15258560      13.23988386      24.50990916 
Ag      19.31840933      21.95437599      23.40805536 
Au      15.33831061      22.15766428      11.20893271 
S      18.65276718      24.06123973      12.76308083 
S      16.16096596      24.06178216      21.99892201 
S      24.23443430      12.83995963      19.64998860 
S      10.32394199      13.10861983      15.14374633 
Ag      12.79615480      13.45829475      11.78530779 
Au      21.84676821      13.33819268      22.94102054 
S       8.94066580      16.25945857      18.36930155 
S      25.61620400      16.05014899      16.35164968 
S      11.19168626      17.23154761      23.14950896 
S      23.30681316      17.10662343      11.56155601 
S      22.88006867      22.68230361      14.27866069 
S      11.76917400      22.82057627      20.45129417 
S      22.28668930      19.43818417      23.80846809 
S      12.33734669      19.56816078      10.95834344 
S      19.08392660       8.82705348      18.56470500 
S      15.48964389       8.89453498      15.96243656 
S      15.98706578      13.36623119       9.74909069 
S      18.49978892      13.28189690      24.78914036 
S      18.43940109      20.32916741      24.96580655 
S      16.24121047      20.50120157       9.79934615 
S      24.25170182      21.26877608      19.13684948 
S      10.51508870      21.54062627      15.41974063 
S      15.16159436      25.15155128      17.48937706 
S      19.86199650      25.18423787      17.28099396 
S      16.99503022      10.41229956      11.78169913 
S      17.44576562      10.30070153      22.71637647 
S      15.85104640      17.02354968      25.56182604 
S      18.63738635      17.08098686       8.97902452 
S      22.17278251      15.35975785      24.08969786 
S      12.53149493      15.55332010      10.63671540 
S      23.68649498      11.89122868      14.91433108 
S      10.83664250      12.11639340      19.82792723 
S      13.78025599      13.21831268      24.27362721 
S      20.69404502      13.34024971      10.32630183 
S      21.58340742      11.21554056      21.93882006 
S      12.86537454      11.26945894      12.77823967 
S      20.75983521      23.45563993      22.12215674 
S      14.04319530      23.58074048      12.60889893 
S      25.23137741      17.12761956      20.93874483 
S       9.32731451      17.34523740      13.81123472 
S      13.65407598      21.00096441      24.33277082 
S      20.95009685      20.92807343      10.36777269 
S      25.55940101      19.44473980      14.99225769 
S       9.06430087      19.63843745      19.58915936 
C      18.87420704      14.57311255      26.03413795 
C      15.63851182      14.66636823       8.50206894 
C      23.50454606      22.92586559      18.91125858 
C      11.31306824      23.16733839      15.69998799 
C      20.90768538       8.79399618      18.79204484 
C      13.67592736       8.72548877      15.73127723 
C      10.57454458      15.51524927      22.93180604 
C      23.87214857      15.37779859      11.78639552 
C       8.14495320      15.23390945      19.66766199 
C      26.35114325      14.96158222      15.07021035 
C      22.87099358      21.16979588      23.95607842 
C      11.74509417      21.30040934      10.83605353 
C      14.88977963      26.26519481      18.92608075 
C      20.09750350      26.35210504      15.87972931 
C      23.98434363      15.48696468      24.35930217 
C      10.72186113      15.74848850      10.39141056 
C      19.82756838      16.06477416       8.02181905 
C      14.61978285      15.99310797      26.44741236 
C      19.83130272      24.97265729      21.67204360 
C      15.02889443      25.06165540      13.05358915 
C      21.21560457      11.60849507      10.63511710 
C      13.26420304      11.50011309      23.89264288 
C      24.69455720      11.08753147      16.22515838 
C      19.91279630       7.85959941      15.17056179 
C      14.37686985       7.82545181      19.22331864 
C      26.38295496      18.24360723      20.05155737 
C       8.21760671      18.51173134      14.69051708 
C      18.92655204      24.29039983      10.96241579 
C      15.84714998      24.22987794      23.79947568 
C      23.48237137      24.12764434      15.23488199 
C      11.31040532      24.29884072      19.46406386 
C      17.45536389      21.31704684       8.69553805 
C      20.93945282      10.16426350      23.29511071 
C      13.45279975      10.16645626      11.43413719 
C      11.82982924      20.80168526      24.33651953 
C      22.77087712      20.71085336      10.34421353 
C       9.15238302      13.40429962      13.76428619 
C      18.38793253       9.31729739      11.32097778 
C      16.05717199       9.18721524      23.14251353 
C       8.51650093      21.13519646      20.49625368 
C      26.10616986      20.92146987      14.05563316 
C      17.22247386      21.18992368      26.03581038 
H      16.66744351      20.42850949      26.59769365 
H      16.51734077      21.79152090      25.45641903 
H      17.77869630      21.83246892      26.72857539 
C      25.33991037      13.19981776      21.06803186 
H      26.31165805      12.73505084      20.86197143 
H      24.89594329      12.75401643      21.96686750 
H      25.47197852      14.27778463      21.21068468 
C       9.70541670      11.35263393      18.59685177 
H       8.89954002      12.06489647      18.38091203 
H       9.28962375      10.44136192      19.04224838 
H      10.22204320      11.11169069      17.66333406 
H      26.57833826      15.57864647      14.19222339 
H      25.66826685      14.15260608      14.78647662 
H      27.28015603      14.53943623      15.47112406 
H      26.77032299      17.70118126      19.18105519 
H      27.20290469      18.49204954      20.73554333 
H      25.88507535      19.16068144      19.72338407 
H      26.60957905      20.57103033      13.14708735 
H      26.81807648      21.47392061      14.68010777 
H      25.25627128      21.56158415      13.79136870 
H      24.25996205      23.58969505      18.47642892 
H      23.20727658      23.28984532      19.90224600 
H      22.62032396      22.87268306      18.26475383 
H      23.65240664      24.96052879      14.54304297 
H      24.42988522      23.83915962      15.70666636 
H      22.76121061      24.41843684      16.00619730 
H      20.20244368      25.34084459      20.70871509 
H      20.02555705      25.71727013      22.45347696 
H      18.75429614      24.78049794      21.60379058 
H      21.17423463      26.41540884      15.68111677 
H      19.72192689      27.33805181      16.17432960 
H      19.58512721      26.00571359      14.97649518 
H      17.94111941      24.35615465      10.48485848 
H      19.49151228      23.45221818      10.53984376 
H      19.47736080      25.22455103      10.80432446 
H      15.22273471      27.27057452      18.64379262 
H      15.43646256      25.92140062      19.81004509 
H      13.81477238      26.28059741      19.14163777 
H      14.94810600      25.78136257      12.23062095 
H      16.08013634      24.81096579      13.23178064 
H      14.59301326      25.48762006      13.96510112 
H      10.33967147      24.10955654      18.98956898 
H      12.05731932      24.50675595      18.69100724 
H      11.22370659      25.15723847      20.14058397 
H      16.90398518      21.98039061       8.01925428 
H      17.95284405      20.52280497       8.12494634 
H      18.20479078      21.88325396       9.25457026 
H      23.10655030      20.65283958       9.30288471 
H      23.08260823      19.81046322      10.88284929 
H      23.20782958      21.59251336      10.82804325 
H      23.36839879      14.77034593      11.02479319 
H      23.61275537      15.00207055      12.78253339 
H      24.95746462      15.34646115      11.63803006 
H      20.13634830      16.62897578       7.13488161 
H      19.30667344      15.14722281       7.72027965 
H      20.70341023      15.79589565       8.61958047 
H      21.06845850      11.02569673       9.71867192 
H      20.65528823      11.16574824      11.46414720 
H      22.28164127      11.63024418      10.89115020 
H      18.84710005       9.73011291      10.41527450 
H      17.97862871       8.32338005      11.10555933 
H      19.12109401       9.25481028      12.13291062 
H      13.47972437       7.83346188      15.12537114 
H      13.25289512       9.60680646      15.23639247 
H      13.21967086       8.60294607      16.72052538 
H      12.58074175       9.90031230      10.82512790 
H      13.88440170       9.26628043      11.88880890 
H      14.21112391      10.64985245      10.81021006 
H      15.88358858      14.27031868       7.51012371 
H      16.21751909      15.57636311       8.69443141 
H      14.56723415      14.89472772       8.56006372 
H       9.53466403      12.86556796      12.88823014 
H       9.05890617      14.47375883      13.54601278 
H       8.17557985      12.99801831      14.05245859 
H      10.42444760      15.09210689       9.56516309 
H      10.52724333      16.79594386      10.13003393 
H      10.15726421      15.49154922      11.29189383 
H       7.41977845      18.81619904      14.00370147 
H       8.75710715      19.39785389      15.03895665 
H      10.75952547      21.29858623      10.35738665 
H      12.46098414      21.85106763      10.21292890 
H      11.67869730      21.77519724      11.81994819 
H      11.66454381      23.54942048      14.73442889 
H      12.16259424      23.08049533      16.38780854 
H      10.55978375      23.84622083      16.11647927 
H      20.66579963       7.47882517      14.47269211 
H      18.96702842       7.32191763      15.02647433 
H      20.24575227       7.71438175      16.20275894 
H      25.00033504      10.09707919      15.87044248 
H      24.14582894      10.99653357      17.16706572 
H      25.58236519      11.71022755      16.39063874 
H      24.18561307      16.49954301      24.73058689 
H      24.54585529      15.32650119      23.43478818 
H      24.28058687      14.74708774      25.11117885 
H      19.95209432      14.77191402      25.98190057 
H      18.61230487      14.17504186      27.02135344 
H      18.31560256      15.49471063      25.83930605 
H      15.10086355      15.03762583      26.69234989 
H      13.73206196      15.80654582      25.83549762 
H      14.33805535      16.52144944      27.36542986 
H      12.20662573      11.53416435      23.60487470 
H      13.38229576      10.88946499      24.79514751 
H      13.85155098      11.08151232      23.06984554 
H      16.47667159       8.19442790      23.34318751 
H      15.33399559       9.13209591      22.32065385 
H      15.58616645       9.57776927      24.05180642 
H      20.52538201       9.25359347      22.84513715 
H      20.15765370      10.67428210      23.86673696 
H      21.78356542       9.91419030      23.94830959 
H      14.55715221       7.16197156      20.07796019 
H      15.00068144       7.50921993      18.37853016 
H      22.14692651      21.71111164      24.57825241 
H      22.94918506      21.65709866      22.97973384 
H      23.84961724      21.16002982      24.44940934 
H      11.40881548      21.59585377      23.70886555 
H      11.47220134      20.91103821      25.36665598 
H      11.52776733      19.82434179      23.94762937 
H      15.32094771      25.17850878      23.96143576 
H      16.81066695      24.25286817      24.32285556 
H      15.23379073      23.40466059      24.17774860 
H       7.79731126      21.67676848      19.87058302 
H       9.36784491      21.78624401      20.73482712 
H       7.21996353      14.80581147      19.26540993 
H       7.90449185      15.90176296      20.50448780 
H       8.81043756      14.43443150      20.01251931 
H       9.48076051      15.52060344      22.99393775 
H      10.98708271      14.90400554      23.74308607 
H      10.89272281      15.09206007      21.97183738 
H      21.37586486       8.77336527      17.79945796 
H      21.17861340       7.88840142      19.34685974 
H      21.25912630       9.67815216      19.33500235 
H      13.32067584       7.76659761      18.94535545 
H       8.02200951      20.82002596      21.42237410 
H       7.79085084      17.98079897      15.54959688 
