322
Properties=species:S:1:pos:R:3 i=321 optimized=T E=-4206.9135161721 pbc="F F F" jobid=102_44-Ag-09_8-000004-PBE
Au      16.83168491      17.08451674      15.91092013 
Ag      17.67459747      17.04805918      18.80097553 
Au      18.60837432      15.02699555      16.95044248 
Au      15.87956679      15.00964324      17.71590967 
Au      19.52184762      17.81697628      16.69003935 
Au      14.98999070      17.79021818      18.01874981 
Au      17.26494947      19.56520298      17.36649777 
Au      17.85299738      15.11304565      13.96261568 
Au      16.63350574      15.01048644      20.63494297 
Au      18.23470600      19.53877824      20.26675066 
Au      16.27703245      19.64204110      14.46958759 
Ag      19.41706983      14.97351677      19.91779464 
Ag      15.07370847      15.06611540      14.71240712 
Au      18.64454411      17.94270813      13.70106771 
Au      15.87667352      17.85967614      20.97150973 
Au      20.42069820      17.74250214      19.56714141 
Au      14.07308514      17.81652442      15.11497339 
Au      21.37576510      15.74386478      17.71276809 
Au      13.10964972      15.76491451      16.90745447 
Ag      13.91094299      15.73641072      19.81624597 
Au      20.57273195      15.82679266      14.76140241 
Au      15.42669747      20.31906983      19.50644209 
Au      19.09758548      20.40767224      15.20785723 
Au      20.05005374      20.39326503      18.07326932 
Au      14.45429817      20.43889220      16.66024751 
Au      17.62974958      12.77165378      18.76930970 
Au      16.84748544      12.79929378      15.71251924 
Au      15.96190470      17.17154001      12.91066265 
Ag      18.55165095      17.03116306      21.74555252 
Au      19.67251166      13.04942387      15.13961540 
Au      14.77163230      12.96844504      19.39748437 
Au      13.08769803      18.49783714      20.08570793 
Au      21.40552362      18.59630581      14.58769675 
Au      20.41518365      13.00401107      17.96033627 
Au      14.08858029      13.03564774      16.56935165 
Au      22.24077949      18.60238931      17.34860736 
Au      12.27625250      18.61027484      17.33177243 
Au      17.71705143      22.12570410      18.74293371 
Au      16.78282483      22.16254961      16.05226016 
Au      20.44357469      19.32121834      22.05421392 
Au      14.04923503      19.44727538      12.65585080 
Au      18.64089708      14.24620965      22.60364839 
Au      15.78310744      14.45559179      11.98012744 
Au      17.33546076      19.39344088      11.63426425 
Au      17.20306471      19.27980027      23.05261702 
Ag      18.22086059      16.23393362      11.27797443 
Au      16.24874582      16.05939998      23.27986984 
Au      21.36263901      16.37213328      21.82032786 
Au      13.14280110      16.51084049      12.78962220 
Au      23.21231004      16.52437656      15.55579081 
Au      11.24325017      16.51795488      19.02097493 
Au      22.40493478      13.74888340      15.98527034 
Au      12.07025979      13.74184203      18.53978382 
Au      14.90979895      22.82519864      18.29955782 
Au      19.60595374      22.84265556      16.58479314 
Au      17.83110745      12.44905135      12.96350859 
Au      16.64684219      12.26311385      21.49709768 
Au      20.19012810      14.31288121      12.47268535 
Au      14.32270520      14.06798592      22.06038462 
Au      21.84638614      21.15437908      15.91439921 
Au      12.67140462      21.09201197      18.83317478 
Au      13.61577820      16.99183110      22.46568670 
Ag      20.89324957      17.22413366      12.11138732 
Au      22.29477648      19.95888537      19.90730959 
Au      12.19973529      20.03195715      14.82015062 
Au      20.01064714      21.84899496      20.46951667 
Au      14.49206567      21.93236983      14.29289899 
Au      15.77014397      10.85083017      17.50495935 
Au      18.77923721      10.85110109      16.94196499 
Au      22.10331858      14.14896816      20.07329882 
Au      12.38998197      14.24356097      14.48005870 
Au      17.00562476      21.77020461      21.51886996 
Au      17.49645519      21.88376921      13.24610748 
Au      19.67742105      12.16768885      20.64145778 
Au      14.78448663      12.29583450      13.83945007 
Au      23.24657447      16.85853294      19.46513709 
Au      11.25774830      16.92956163      15.15641891 
Au      20.08723426      20.24085461      12.59140920 
Au      14.41742533      20.18756542      22.09103767 
Ag      20.52905224      23.03707763      13.68540159 
Au      13.84736590      23.17839459      21.21017124 
Au      24.73823933      14.53995766      17.90827544 
Au       9.73737422      14.52275084      16.66801842 
Au      17.23067177      25.00458621      17.39497900 
Ag      21.56998646      10.86227752      14.91250671 
Au      12.95263242      10.67752864      19.63241977 
Au      16.26872283       9.73456185      13.80787329 
Au      18.17187192       9.62143910      20.67445355 
Au      10.35442671      18.25713328      21.23473850 
Au      24.15847731      18.40462689      13.46297023 
Au      24.51521794      20.43821375      17.02675547 
Au       9.97940683      20.41679432      17.75615130 
Au      23.73150475      18.52086284      22.18642662 
Au      10.74665298      18.66417321      12.50801866 
S      19.54524853       9.58214421      14.88167655 
S      15.00011770       9.53416728      19.57479264 
Au      14.69697640      18.67577846      24.89873735 
Au      19.87433181      18.93286043       9.74993387 
Au      18.38857769      13.41057050      10.00829341 
Ag      16.09879005      13.15019335      24.36981426 
Au      19.23736700      22.00844938      23.53973623 
Au      15.26023748      22.15103700      11.23592899 
S      18.50091322      24.06065955      12.81076204 
S      15.93601568      23.91974703      22.01396997 
S      24.16674674      12.92373139      19.53273674 
S      10.34108789      12.97906646      14.98565690 
Au      12.68830524      13.48722046      11.58553887 
Au      21.77414614      13.30034377      22.92249180 
S       8.93237795      16.01235358      18.30940768 
S      25.50895868      16.09620917      16.31244809 
S      11.23998743      17.06619877      23.09251393 
S      23.34249415      17.30914881      11.52794435 
S      22.86598967      22.69177237      14.28657448 
S      11.66874549      22.61642512      20.50595536 
S      22.23623725      19.45859689      23.75253144 
S      12.24138548      19.65074496      10.97336760 
S      18.98725919       8.89467634      18.61009828 
S      15.39436517       8.95372108      15.82908471 
S      16.04000478      13.43893482       9.74185322 
S      18.49597894      13.16857833      24.80737190 
S      18.37139303      20.32119311      24.94651627 
S      16.15254691      20.50570942       9.79893410 
S      24.17736777      21.37019296      19.19295186 
S      10.30495164      21.39600427      15.60972401 
S      14.88406227      25.16003399      17.59097747 
S      19.57658298      25.19411078      17.22352630 
S      17.14382807      10.43735314      11.72865765 
S      17.31851553      10.27015160      22.78546171 
S      15.96071990      16.82361098      25.61884426 
S      18.64928892      17.10848440       8.93656854 
S      22.02805308      15.38643078      23.97323932 
S      12.42522606      15.60639195      10.61004495 
S      23.66605017      12.04666364      14.76834857 
S      10.93829312      11.91080798      19.73088573 
S      13.64125342      13.15130219      24.21116453 
S      20.75455754      13.43122651      10.27420991 
S      21.53292738      11.16698347      21.95630555 
S      12.93790913      11.32886760      12.48692406 
S      20.53920780      23.48685139      22.20149711 
S      13.94472362      23.59687660      12.60013367 
S      25.20606408      17.20797073      20.88146317 
S       9.27829143      17.30214268      13.77284827 
S      13.70025311      20.75392854      24.35881758 
S      20.85099117      20.99861742      10.39657560 
S      25.52620966      19.51158134      15.07481737 
S       8.97306732      19.43846379      19.68989120 
C      18.88206245      14.43757258      26.07144643 
C      15.64190145      14.72871278       8.50221321 
C      23.41331423      23.01295394      18.92470417 
C      11.06056120      23.03845126      15.90178839 
C      20.79756771       8.74414389      18.85784906 
C      13.57467776       8.97184205      15.59285757 
C      10.63853323      15.35067498      22.86536951 
C      23.92624439      15.57814939      11.69159455 
C       8.18662319      14.96088640      19.61343246 
C      26.29879787      15.09725712      14.99364088 
C      22.78979477      21.19678289      23.93020402 
C      11.68430010      21.39145257      10.84035589 
C      14.64182919      26.25105538      19.04926367 
C      19.83312447      26.25863629      15.74837295 
C      23.83131443      15.57393163      24.25634423 
C      10.61855563      15.79399787      10.34897379 
C      19.85408949      16.11100544       7.97743977 
C      14.75729361      15.75957483      26.50329648 
C      19.54702820      24.97298437      21.79364738 
C      14.92133316      25.08981739      13.01662416 
C      21.29476837      11.71010385      10.60732298 
C      13.05386212      11.45824773      23.81292081 
C      24.75779389      11.23687417      16.00643736 
C      19.97081895       7.86232692      15.37541324 
C      14.64510920       7.80596177      19.07729640 
C      26.35967400      18.30460523      19.97516005 
C       8.12393098      18.36302649      14.72027980 
C      18.77455937      24.25796523      11.00833823 
C      15.71129546      24.08053322      23.82612470 
C      23.38990332      24.19198543      15.20528546 
C      11.05240521      24.09179872      19.60682784 
C      17.33836071      21.34997405       8.68539325 
C      20.85908277      10.14435785      23.31994778 
C      13.62516359      10.33791789      11.10676163 
C      11.87844332      20.57384990      24.42974389 
C      22.67625324      20.83890134      10.34348632 
C       9.15720624      13.29754512      13.62180641 
C      18.54495138       9.31392650      11.37042400 
C      15.90030080       9.15697806      23.10879908 
C       8.40015460      20.89294962      20.64564646 
C      26.11463306      20.99982132      14.18503582 
C      17.17609342      21.12289667      26.08119251 
H      16.68407425      20.32429585      26.65045873 
H      16.41961094      21.69767094      25.54063200 
H      17.73660817      21.77778929      26.75829101 
C      25.33988474      13.20992816      20.91275413 
H      26.30811858      12.77469873      20.63861205 
H      24.93554424      12.69907034      21.79555599 
H      25.45792991      14.27954245      21.11711946 
C       9.85349749      11.11836274      18.47772235 
H       9.00933095      11.79428078      18.29314817 
H       9.49221873      10.16885598      18.88877664 
H      10.38376454      10.94744805      17.53638139 
H      26.50898194      15.77353486      14.15552118 
H      25.64204225      14.28464832      14.66200198 
H      27.23833379      14.68927089      15.38386595 
H      26.78542897      17.72360803      19.14854006 
H      27.15167932      18.61074664      20.66837170 
H      25.85109757      19.18788847      19.57759749 
H      26.60613533      20.66778088      13.26328191 
H      26.84105174      21.51295335      14.82593581 
H      25.27660401      21.66748164      13.94725520 
H      24.16275311      23.67225356      18.47257521 
H      23.11378926      23.40107877      19.90551644 
H      22.53076581      22.93576617      18.27779950 
H      23.51691644      25.01259289      14.48925557 
H      24.34921271      23.98180649      15.69405923 
H      22.65091005      24.47111873      15.96338646 
H      20.01569281      25.45682790      20.92853324 
H      19.57516870      25.64777005      22.65718796 
H      18.51089684      24.71224896      21.55310496 
H      20.90328221      26.24793847      15.50960723 
H      19.52375425      27.27746515      16.00839981 
H      19.26244582      25.89726901      14.88697986 
H      17.79877869      24.28921362      10.50838181 
H      19.37648751      23.43627633      10.60452068 
H      19.30102116      25.20703987      10.84994869 
H      14.91200867      27.27257743      18.75805228 
H      15.24879277      25.92484485      19.89910517 
H      13.58140573      26.21168858      19.32530539 
H      14.82559149      25.79582466      12.18323271 
H      15.97706204      24.84597317      13.18315328 
H      14.49191838      25.52694250      13.92568134 
H      10.10454079      23.81535866      19.12823516 
H      11.76703877      24.41460908      18.84299318 
H      10.88063138      24.89836790      20.32885611 
H      16.76921719      22.01618866       8.02672903 
H      17.83694675      20.57148317       8.09434148 
H      18.08832258      21.91947042       9.24045541 
H      22.99848162      21.03550209       9.31415658 
H      23.00593657      19.84141269      10.64903836 
H      23.09644268      21.59265388      11.01971794 
H      23.47357303      15.00569656      10.87298552 
H      23.61520219      15.14490796      12.64926884 
H      25.01776459      15.55786003      11.60162777 
H      20.13444980      16.67292049       7.07970274 
H      19.35331151      15.17612156       7.69529951 
H      20.74546370      15.87358535       8.56539886 
H      21.19349531      11.12468902       9.68626312 
H      20.70632118      11.25941175      11.41218799 
H      22.34908305      11.75051638      10.90597801 
H      19.05692537       9.69403949      10.47913033 
H      18.13216336       8.32035569      11.16005599 
H      19.23397273       9.26164489      12.22091747 
H      13.29446588       8.11505949      14.96907518 
H      13.24429505       9.90193462      15.11789870 
H      13.10101665       8.88564295      16.57903169 
H      12.79866307      10.09305220      10.42959327 
H      14.05084401       9.42167311      11.53392445 
H      14.40591013      10.88365747      10.56730548 
H      15.86437982      14.32271783       7.50852255 
H      16.21973644      15.64392534       8.67127821 
H      14.56971727      14.94423832       8.58844989 
H       9.55990241      12.81579305      12.72202710 
H       9.03075401      14.37188141      13.44984083 
H       8.19373670      12.84742323      13.88848899 
H      10.32287799      15.12485085       9.53279050 
H      10.43324376      16.83827266      10.06847701 
H      10.05277848      15.55503750      11.25368944 
H       7.32347987      18.68218261      14.04273474 
H       8.62865766      19.23954584      15.13721986 
H      10.70820952      21.39829748      10.34196933 
H      12.42231802      21.92948983      10.23220631 
H      11.60572831      21.86571597      11.82315995 
H      11.34352047      23.44711773      14.92434011 
H      11.95385246      22.95440858      16.53279269 
H      10.31392875      23.68477228      16.37652541 
H      19.80407854       7.22259223      14.49995960 
H      19.30547960       7.54924981      16.18939910 
H      21.01310172       7.76951093      15.69316033 
H      25.16551924      10.32636590      15.55207523 
H      24.21751837      10.98845198      16.92444213 
H      25.57229263      11.92878941      16.25414847 
H      24.01011187      16.60895945      24.57296555 
H      24.40627279      15.36638943      23.34965345 
H      24.12226889      14.87940944      25.05281399 
H      19.94594363      14.69118158      25.98908803 
H      18.67969271      13.99952004      27.05615341 
H      18.27669743      15.34071247      25.93643038 
H      15.26417953      14.81930621      26.75640669 
H      13.87916712      15.54268656      25.88828486 
H      14.45597466      16.27847444      27.42044650 
H      11.99709389      11.52431804      23.52880151 
H      13.15484509      10.83154617      24.70660944 
H      13.61860594      11.02472178      22.98171673 
H      16.29856495       8.15582044      23.31089252 
H      15.22302306       9.12540241      22.24830553 
H      15.37755899       9.53076773      23.99661003 
H      20.41661673       9.24363221      22.87722845 
H      20.09541429      10.68532514      23.88869301 
H      21.69496956       9.87357707      23.97551022 
H      15.61345092       7.32186484      18.90058203 
H      14.04363933       7.75025950      18.16577377 
H      22.04821928      21.71910829      24.54775379 
H      22.87276723      21.69395266      22.95904865 
H      23.76355540      21.19300895      24.43319910 
H      11.44358023      21.39285955      23.84484024 
H      11.57074062      20.65712970      25.47863971 
H      11.54931033      19.61304883      24.02291476 
H      15.16860370      25.01249062      24.02364519 
H      16.70817740      24.12443055      24.28226232 
H      15.14844020      23.23150348      24.22909835 
H       7.69535440      21.45235699      20.01939192 
H       9.24250390      21.53253872      20.93408571 
H       7.26171163      14.52247029      19.22125574 
H       7.95428338      15.61379344      20.46407011 
H       8.87395059      14.16893291      19.93049234 
H       9.55530464      15.34062402      23.03067566 
H      11.14506821      14.72604743      23.61147225 
H      10.87612518      14.98052528      21.86141542 
H      21.25506671       8.55273930      17.88002431 
H      20.99221256       7.89786444      19.52658887 
H      21.21624566       9.66120276      19.28626737 
H      14.12213976       7.30470837      19.89953147 
H       7.88486835      20.52437064      21.54021997 
H       7.70935354      17.75587319      15.53370427 
