322
Properties=species:S:1:pos:R:3 i=259 optimized=T E=-4286.3259778491 pbc="F F F" jobid=102_44-Ag-30_4-000006-PBE
Ag      16.85980529      17.12956232      15.79486589 
Ag      17.65692617      17.08022785      18.70791105 
Au      18.61280893      15.06604572      16.87412318 
Au      15.87842710      15.02865114      17.58774163 
Au      19.50077406      17.84792321      16.60896335 
Au      14.99440138      17.84463508      17.89240286 
Au      17.29072507      19.59166036      17.28178821 
Au      17.91291824      15.17759934      13.88599482 
Au      16.62983851      15.07176347      20.56309881 
Au      18.22660849      19.60237362      20.18006684 
Ag      16.37532332      19.66553184      14.37048652 
Au      19.43949160      15.01498648      19.85903800 
Au      15.09027304      15.10440419      14.59294314 
Au      18.68329546      17.98658988      13.60967377 
Au      15.83805581      17.89835688      20.84480724 
Au      20.40150707      17.79374318      19.52526500 
Au      14.14447120      17.89648584      14.99761679 
Au      21.36724221      15.78575335      17.66403073 
Au      13.18115205      15.83708982      16.77726251 
Ag      13.92130868      15.80948883      19.68849950 
Au      20.63027563      15.83199837      14.71887165 
Au      15.45240729      20.39333407      19.42299822 
Ag      19.13840293      20.44446193      15.15696549 
Au      20.05068526      20.43326907      17.99460950 
Au      14.51942475      20.43706335      16.57570893 
Au      17.63811014      12.80985174      18.71251526 
Au      16.84243580      12.87476841      15.64445151 
Ag      16.03352609      17.23493556      12.85288976 
Ag      18.51409850      17.08160688      21.65301599 
Au      19.68765673      13.11152332      15.05385072 
Au      14.79547479      13.00805429      19.31448977 
Ag      13.11298443      18.60127424      19.94538703 
Au      21.41727550      18.64597955      14.55360928 
Au      20.42357335      13.01827009      17.85587069 
Ag      14.08204766      13.01373987      16.50575997 
Au      22.23921500      18.60901293      17.28625537 
Ag      12.27963513      18.68635557      17.21304129 
Ag      17.75305940      22.17147012      18.63114893 
Au      16.87959928      22.15795651      15.92878001 
Au      20.41635958      19.30073571      22.01230717 
Au      14.10882677      19.41045189      12.54251778 
Au      18.75498816      14.29977295      22.49632624 
Au      15.85181653      14.50232393      11.90922594 
Ag      17.37096970      19.48741810      11.56399804 
Ag      17.23670930      19.34360161      22.93466875 
Ag      18.32394936      16.26067421      11.24553525 
Au      16.20404656      16.21326311      23.20435941 
Ag      21.33207202      16.32035063      21.79091935 
Ag      13.22253134      16.48575255      12.68434010 
Au      23.22856281      16.51103680      15.53026871 
Au      11.30778295      16.58549962      18.86496798 
Ag      22.44112541      13.75713413      15.92914369 
Au      12.10003329      13.82977241      18.41807612 
Au      14.96761092      22.85618925      18.07104639 
Au      19.70989347      22.88772162      16.61401499 
Ag      17.87876904      12.49776258      12.89553638 
Au      16.65554202      12.35106766      21.45607153 
Ag      20.24047432      14.29595920      12.40993049 
Au      14.32151645      14.16776422      21.94399121 
Au      21.89448305      21.17097212      15.88086077 
Au      12.71730860      21.17527331      18.71884457 
Au      13.54361769      17.08846293      22.31066610 
Au      20.98038681      17.20796639      12.11111505 
Au      22.26203134      19.95648339      19.83756870 
Au      12.31794346      20.08784115      14.72562284 
Ag      20.00957243      21.84137645      20.44845711 
Ag      14.61238641      21.91614954      14.16700892 
Au      15.79889917      10.89389545      17.43109665 
Au      18.76631585      10.90724316      16.83123044 
Au      22.10723518      14.13586099      19.95186121 
Au      12.42083920      14.23337769      14.46544673 
Au      17.04820190      21.86977945      21.37930226 
Au      17.59658754      21.91774742      13.15953897 
Au      19.70039848      12.18377467      20.56344057 
Au      14.81392647      12.34173943      13.75312998 
Au      23.20629347      16.89953880      19.47381343 
Au      11.34013543      16.99964375      14.99969234 
Au      20.10329426      20.26139703      12.53343522 
Au      14.46796976      20.17849992      22.03002592 
Ag      20.57167110      23.06330070      13.64150691 
Ag      14.02414369      22.99800576      20.98262194 
Au      24.77281071      14.54623240      17.83972753 
Au       9.73312278      14.66868828      16.57026156 
Au      17.27125295      25.05924332      17.25978595 
Ag      21.52872875      10.89575322      14.81037407 
Au      12.91200402      10.77321700      19.50561854 
Ag      16.54156165       9.97488269      13.73470838 
Au      18.19050788       9.65624180      20.52029646 
Ag      10.40780763      18.33289641      21.02647709 
Ag      24.09437326      18.36854456      13.42490421 
Au      24.56167958      20.40313972      17.00347317 
Au      10.02274875      20.52915485      17.56539767 
Ag      23.57378419      18.47721664      22.11179155 
Ag      10.95638110      18.68592563      12.42341900 
S      19.45900238       9.66926983      14.71306445 
S      14.92100039       9.56603440      19.46218793 
Ag      14.65272644      18.81638040      24.66193172 
Au      19.86797025      18.95354536       9.71487728 
Ag      18.41685825      13.36868369      10.07877716 
Au      16.04766208      13.28535070      24.40619490 
Au      19.22912022      22.08422316      23.43156100 
Au      15.32744506      22.18879862      11.18991565 
S      18.57500370      24.13892021      12.75557959 
S      16.05321697      24.05554964      21.82332016 
S      24.19917698      12.95661560      19.48861354 
S      10.30877313      13.08203425      14.91456126 
Au      12.67568342      13.52038115      11.54711351 
Au      21.80689858      13.37926144      22.88256739 
S       8.95057825      16.19344204      18.19696559 
S      25.53319896      16.06909737      16.20642856 
S      11.21405785      17.19824400      23.03141156 
S      23.32231571      17.23749796      11.38857759 
S      22.90130768      22.70419967      14.24458610 
S      11.67583809      22.63171867      20.41243946 
S      22.09073031      19.36517773      23.80134806 
S      12.43070770      19.58707973      10.73502665 
S      19.00671398       8.93443400      18.45373886 
S      15.62935726       9.01554154      15.73511017 
S      16.02046888      13.54088034       9.68414555 
S      18.39469492      13.27810790      24.69659167 
S      18.31601179      20.46339421      24.88637171 
S      16.17445701      20.59160402       9.67244969 
S      24.19896263      21.30744612      19.18553674 
S      10.42177857      21.47468543      15.41728638 
S      14.92224577      25.20269946      17.42235688 
S      19.61368911      25.26910276      17.14350688 
S      17.23768903      10.54312517      11.47314166 
S      17.36114255      10.31233591      22.63167516 
S      15.99863751      17.01930065      25.52572956 
S      18.65715879      17.11346261       8.89623008 
S      22.08064469      15.42337616      24.01087578 
S      12.39372710      15.59865440      10.49528703 
S      23.67813167      11.96400589      14.72567969 
S      10.91888565      12.03475994      19.60799829 
S      13.67572975      13.31070015      24.14748718 
S      20.84378755      13.35824940      10.21463646 
S      21.56063006      11.24545852      21.89638893 
S      12.98315403      11.34798551      12.43539056 
S      20.60927308      23.54404607      22.15423517 
S      13.99273744      23.65587212      12.50425222 
S      25.17668217      17.13554483      20.87810102 
S       9.35039660      17.32645726      13.63413590 
S      13.65111702      20.98878126      24.18422552 
S      20.85661232      21.03070680      10.32219563 
S      25.55649938      19.51107345      15.03248242 
S       8.97846353      19.56397597      19.47307230 
C      18.79944931      14.52687452      25.97264276 
C      15.64551037      14.86713902       8.47600745 
C      23.50046763      22.98261393      18.93598492 
C      11.18868284      23.11337616      15.70692520 
C      20.82124249       8.81587996      18.68972122 
C      13.82478096       8.85493538      15.44800729 
C      10.59882408      15.47703020      22.87352544 
C      23.90843475      15.50858773      11.56882775 
C       8.19100447      15.15524284      19.50459562 
C      26.29140300      15.03498231      14.89467498 
C      22.65867088      21.09412173      24.03905102 
C      11.88885004      21.32858828      10.53294513 
C      14.64606211      26.26318081      18.89718323 
C      19.90447610      26.30489792      15.65484283 
C      23.88752166      15.60393824      24.28265823 
C      10.58652171      15.81398873      10.25728158 
C      19.91530089      16.10568895       8.01886788 
C      14.80162170      15.97169201      26.44306220 
C      19.66141270      25.06054711      21.74886770 
C      14.97278041      25.14585386      12.93133992 
C      21.41602356      11.65718985      10.60997920 
C      13.13155251      11.58707000      23.83476386 
C      24.69100201      11.10856585      16.00233089 
C      19.81688315       7.92211190      15.16143146 
C      14.51760115       7.86305287      18.90094416 
C      26.35231199      18.22075590      19.98073861 
C       8.20605857      18.38829686      14.59666736 
C      18.87645261      24.35286682      10.95961049 
C      15.80163141      24.24861920      23.62946218 
C      23.44679294      24.20099997      15.15709799 
C      11.10664506      24.13906743      19.53324223 
C      17.37537334      21.46432695       8.59511234 
C      20.88539691      10.21195138      23.25179638 
C      13.67480451      10.40386280      11.02439856 
C      11.82448340      20.81237395      24.15327937 
C      22.67799252      20.82351129      10.27223888 
C       9.17065648      13.42210169      13.51906689 
C      18.61461932       9.37686032      11.13657350 
C      15.93370093       9.22067072      22.98375824 
C       8.40904548      21.02566278      20.41954923 
C      26.13702464      21.00578554      14.14664767 
C      17.08574174      21.31306699      25.94866150 
H      16.61619086      20.54238082      26.57317412 
H      16.31376973      21.82085174      25.36429101 
H      17.60906935      22.03463789      26.58600131 
C      25.35592602      13.27427993      20.87372673 
H      26.32765500      12.83715190      20.61558910 
H      24.94420878      12.77693850      21.76077357 
H      25.46643769      14.34898642      21.05753301 
C       9.80882149      11.26028498      18.36650202 
H       8.98451035      11.95861057      18.17544058 
H       9.42124719      10.32704246      18.79075329 
H      10.33077039      11.06125164      17.42604290 
H      26.50233058      15.69100431      14.04107215 
H      25.62176237      14.22265720      14.58869615 
H      27.23035395      14.62410472      15.28339641 
H      26.69270004      17.69681678      19.08037115 
H      27.20201219      18.40599930      20.64871361 
H      25.89471692      19.17380386      19.69945147 
H      26.61156744      20.67839620      13.21398569 
H      26.87715638      21.51973111      14.77056323 
H      25.29815807      21.67740007      13.92180295 
H      24.28645600      23.62368333      18.52083647 
H      23.18526968      23.36100765      19.91605852 
H      22.63774407      22.95041711      18.25924768 
H      23.57896320      25.01862467      14.43861150 
H      24.40622143      23.98072650      15.64106257 
H      22.71497565      24.48981008      15.91845681 
H      20.12765918      25.52172484      20.87035189 
H      19.72502735      25.74577153      22.60194998 
H      18.61094462      24.83374913      21.53195009 
H      20.98290641      26.30613755      15.45666269 
H      19.57027376      27.32385502      15.88134609 
H      19.37131547      25.91527972      14.78134892 
H      17.90762159      24.40835644      10.44858363 
H      19.46550285      23.52298435      10.55326484 
H      19.42334836      25.29266241      10.81641949 
H      14.94992985      27.28489165      18.64231479 
H      15.21210801      25.90335141      19.76249765 
H      13.57391480      26.24372827      19.12618546 
H      14.90126526      25.85570376      12.09929421 
H      16.02396846      24.89674297      13.11787500 
H      14.53382416      25.58836189      13.83321188 
H      10.14909267      23.91738928      19.04586103 
H      11.83301818      24.45492171      18.77742256 
H      10.96565836      24.93901056      20.26979016 
H      16.82934250      22.17645982       7.96633047 
H      17.85569061      20.70314626       7.96766782 
H      18.14355112      21.98580532       9.17259551 
H      23.00890408      21.00399949       9.24266386 
H      22.97843932      19.81796193      10.58274402 
H      23.11863617      21.56960914      10.94383233 
H      23.38337688      14.89035801      10.83055596 
H      23.70619782      15.12415370      12.57518599 
H      24.98676311      15.49313056      11.37181475 
H      20.23559922      16.65158081       7.12468338 
H      19.43849258      15.16148640       7.72644737 
H      20.77750742      15.88945071       8.65667500 
H      21.33167768      11.03436166       9.71222568 
H      20.83557026      11.21394783      11.42496181 
H      22.46762958      11.71858767      10.91343688 
H      19.13975634       9.71235295      10.23523318 
H      18.18546836       8.38442666      10.95677823 
H      19.31120098       9.32871131      11.98075022 
H      13.65710489       7.98453653      14.80228741 
H      13.41446349       9.74993195      14.96761936 
H      13.32593828       8.69658897      16.41138330 
H      12.84176404      10.14492697      10.36049859 
H      14.13953425       9.49340884      11.42128507 
H      14.42539058      10.98597228      10.47993151 
H      15.81213209      14.45089589       7.47515461 
H      16.28567693      15.74422465       8.62110250 
H      14.59144579      15.14748694       8.59101061 
H       9.59356516      12.94238170      12.62748835 
H       9.06065618      14.49992533      13.35462109 
H       8.19612309      12.97988103      13.75739548 
H      10.24511749      15.09925126       9.50033014 
H      10.42889346      16.83900091       9.89813051 
H      10.03086008      15.66695248      11.18775331 
H       7.35718868      18.63098959      13.94637946 
H       8.68893994      19.31286254      14.92692496 
H      10.93479148      21.32399351       9.99293031 
H      12.64997542      21.85558856       9.94391711 
H      11.76593559      21.83379788      11.49568405 
H      11.51240338      23.50296540      14.73394340 
H      12.05508220      23.02968379      16.37431399 
H      10.43220219      23.77457962      16.14434250 
H      19.70788683       7.31952087      14.25161253 
H      19.09108107       7.59241459      15.91417079 
H      20.83215176       7.80415860      15.55110292 
H      25.03293282      10.15143979      15.59291284 
H      24.12867573      10.93996854      16.92544431 
H      25.55571767      11.74298458      16.23230724 
H      24.05711156      16.62132490      24.65774805 
H      24.45583457      15.45943665      23.35935529 
H      24.20433409      14.87362656      25.03546191 
H      19.87677877      14.72425983      25.90688489 
H      18.55550152      14.09742250      26.95139625 
H      18.23785919      15.45529434      25.81821657 
H      15.28276349      15.01049850      26.66546818 
H      13.89206411      15.78904634      25.86319964 
H      14.55073282      16.49070926      27.37555237 
H      12.06667812      11.62419482      23.57568230 
H      13.26861253      11.00000733      24.75000598 
H      13.68779116      11.13958889      23.00554134 
H      16.32117793       8.21500286      23.18454990 
H      15.23934782       9.19441962      22.13673367 
H      15.43536386       9.60780036      23.87992531 
H      20.47321216       9.29987074      22.80319140 
H      20.09660682      10.73373788      23.80312023 
H      21.71432201       9.96212155      23.92418129 
H      14.81679408       7.17618620      19.70182972 
H      15.09641362       7.64851556      17.99253632 
H      21.89952507      21.62536050      24.62690354 
H      22.80411456      21.61121201      23.08572133 
H      23.60532163      21.06266968      24.59113062 
H      11.41795210      21.49656702      23.39956743 
H      11.45365679      21.09152704      25.14694280 
H      11.51914055      19.78537705      23.92914245 
H      15.31298361      25.21595752      23.79822435 
H      16.78112998      24.23752919      24.12315251 
H      15.17007974      23.44680845      24.02869055 
H       7.69058740      21.58262520      19.80724487 
H       9.25627409      21.66834503      20.69198647 
H       7.26970656      14.71378842      19.10717295 
H       7.94770357      15.81468261      20.34732304 
H       8.87378069      14.36532993      19.83593826 
H       9.51592637      15.48465907      23.04313483 
H      11.09341511      14.86748233      23.63886297 
H      10.82308076      15.06646886      21.88251058 
H      21.27687532       8.64190026      17.70731815 
H      21.03454234       7.96692310      19.34941066 
H      21.22631184       9.73638376      19.12394618 
H      13.44884006       7.74880587      18.70174565 
H       7.91001568      20.66268963      21.32585707 
H       7.85852141      17.82390242      15.46960067 
