322
Properties=species:S:1:pos:R:3 i=249 optimized=T E=-4206.9171916591 pbc="F F F" jobid=102_44-Ag-09_8-000003-PBE
Au      16.82136970      17.04240986      15.84342918 
Au      17.65718772      16.99287903      18.74174277 
Au      18.57436791      14.93734091      16.85207677 
Au      15.84919223      14.95124051      17.66261006 
Au      19.51925422      17.77195958      16.59966557 
Au      14.97808032      17.76421010      17.96476072 
Au      17.26307894      19.52010881      17.32402653 
Ag      17.84594615      15.07575927      13.93681786 
Au      16.60408214      14.97318008      20.63253658 
Au      18.23640065      19.51116213      20.20813390 
Ag      16.27824478      19.59061026      14.45790675 
Au      19.38970558      14.89781876      19.90530853 
Au      15.04267146      15.00736161      14.67112746 
Au      18.64387748      17.93174262      13.68352175 
Au      15.87332122      17.84541675      20.97563891 
Au      20.40599497      17.69586923      19.51628036 
Au      14.04837149      17.79419888      15.07626920 
Au      21.32210175      15.67638472      17.66470188 
Au      13.10507722      15.74104428      16.89777014 
Au      13.90791858      15.72098355      19.86245518 
Au      20.56246870      15.78597777      14.71621337 
Au      15.43495645      20.30782395      19.48175048 
Au      19.10901014      20.33898731      15.17586623 
Ag      20.03135284      20.34293302      18.01574661 
Au      14.45174036      20.39435567      16.64323696 
Au      17.59808836      12.71720745      18.75860699 
Au      16.83960630      12.75415170      15.66342000 
Au      15.93290564      17.14815932      12.89214280 
Au      18.54124600      17.00580067      21.77422650 
Ag      19.66503188      12.99231394      15.05641235 
Au      14.77120792      12.92013071      19.40352632 
Au      13.14355400      18.49234245      20.09726926 
Ag      21.42596239      18.55323801      14.51558117 
Au      20.34851581      12.93200646      17.90245553 
Au      14.05719812      12.96238919      16.57505875 
Au      22.19112057      18.55881003      17.29627875 
Au      12.26077750      18.58833969      17.34490992 
Au      17.77114013      22.07991034      18.66458035 
Au      16.78464459      22.07924807      15.99886610 
Au      20.44064069      19.24226390      22.03361452 
Au      14.03341324      19.38882547      12.62491194 
Au      18.71845952      14.20437537      22.57809559 
Au      15.70467319      14.39747208      11.98841373 
Au      17.28075394      19.36799468      11.63463761 
Au      17.21797129      19.28217492      23.04344491 
Au      18.18803189      16.28299625      11.28356426 
Au      16.22908861      16.02454541      23.28925361 
Au      21.37187358      16.30855478      21.79576223 
Au      13.08757244      16.48099426      12.76290079 
Au      23.18523989      16.44039050      15.56746320 
Au      11.29044494      16.46698412      19.09436106 
Au      22.36149979      13.67637494      15.95809559 
Au      12.07338197      13.71244364      18.55513188 
Au      14.92743958      22.79089477      18.24355164 
Au      19.59969128      22.78933847      16.42979590 
Au      17.79646121      12.41355988      12.93006380 
Au      16.68330424      12.25712007      21.50742261 
Au      20.12986626      14.26244022      12.45111982 
Au      14.28279590      14.08164653      22.07576148 
Au      21.86145112      21.05439308      15.87532826 
Au      12.66830183      21.06389543      18.84703161 
Ag      13.60398097      17.05880951      22.54378348 
Ag      20.85414501      17.17514283      12.06263531 
Au      22.24464942      19.89707907      19.85965961 
Au      12.20773558      19.99602448      14.81605804 
Au      19.98424620      21.76026537      20.47945981 
Au      14.49413921      21.86838227      14.27369186 
Au      15.75089432      10.80070133      17.51407447 
Au      18.69008584      10.82306843      16.89526610 
Au      22.05252155      14.04623955      20.00665887 
Au      12.34898700      14.20204881      14.50852624 
Au      17.04746032      21.75992815      21.46042688 
Au      17.50238559      21.82678199      13.20303065 
Ag      19.69479377      12.10162154      20.66120501 
Au      14.71575041      12.24048308      13.82657419 
Au      23.20433803      16.78778042      19.41477575 
Au      11.22065480      16.90638994      15.18971184 
Au      20.05092711      20.26328706      12.56475406 
Au      14.45843135      20.18696382      22.09016943 
Au      20.65820565      23.25238488      13.58274173 
Au      13.89984126      23.19474495      21.15903144 
Au      24.73379300      14.50421351      17.90013442 
Au       9.71761738      14.59721389      16.71783337 
Au      17.33047614      24.94552461      17.43623307 
Ag      21.54286971      10.77055511      14.90843982 
Au      12.95355330      10.62342580      19.62066130 
Au      16.19809483       9.70178140      13.79594617 
Au      18.26525630       9.56334867      20.60363612 
Ag      10.45090521      18.31868298      21.20151885 
Au      24.17529214      18.32596009      13.48101979 
Au      24.50419598      20.38873330      17.02296961 
Au       9.98483159      20.46322835      17.69578114 
Au      23.71215908      18.43019634      22.16014940 
Au      10.75060453      18.67239047      12.48939648 
S      19.45572856       9.61283391      14.79910138 
S      15.00195468       9.48015863      19.61240454 
Au      14.69675375      18.74635084      24.90586422 
Au      19.89501957      18.89461662       9.70709181 
Au      18.31030080      13.37985260      10.00948992 
Au      16.08655652      13.10882298      24.49448977 
Au      19.27984111      22.04466882      23.49455274 
Au      15.28516815      22.14790975      11.21650089 
S      18.56783113      24.02377607      12.81641694 
S      16.00258585      23.92556048      21.93198750 
S      24.14175251      12.87882824      19.50768903 
S      10.25535125      13.04468352      15.01867502 
Au      12.57627520      13.40948552      11.61175309 
Au      21.78857513      13.16803600      22.86032808 
S       8.97150815      16.09192454      18.38867294 
S      25.50938012      16.05741691      16.30177663 
S      11.19666183      17.15886646      23.19972221 
S      23.31889791      17.23856637      11.56710307 
S      22.84122900      22.66527136      14.24934816 
S      11.70780085      22.64539987      20.49338206 
S      22.23782195      19.40631757      23.72272349 
S      12.22198916      19.67823286      10.94140524 
S      19.10028674       8.86526122      18.53931539 
S      15.36734823       8.92054088      15.83818074 
S      15.96224976      13.43304844       9.74782976 
S      18.43714267      13.13856527      24.77284237 
S      18.39081846      20.37432760      24.90357340 
S      16.16726006      20.51369943       9.76515504 
S      24.13852628      21.31730361      19.18348396 
S      10.34902167      21.42689922      15.54897706 
S      14.98198505      25.12868128      17.55247237 
S      19.68332341      25.08471787      17.28436397 
S      17.03036239      10.39864740      11.69759098 
S      17.44073936      10.24555930      22.70587308 
S      15.88310420      16.84085328      25.59904607 
S      18.62226517      17.07520636       8.94620057 
S      22.01698433      15.26130300      23.91651299 
S      12.33192610      15.52728696      10.62772134 
S      23.63581240      11.95215625      14.79478870 
S      10.93298176      11.85047147      19.66965985 
S      13.71808816      13.11061392      24.23042577 
S      20.67851262      13.34586206      10.24777033 
S      21.63202706      11.02329767      21.91351008 
S      12.84480722      11.25616042      12.52528701 
S      20.60590999      23.47890716      22.12629309 
S      13.98038040      23.57754587      12.59810433 
S      25.16769466      17.12117032      20.83246052 
S       9.28088198      17.32949716      13.77094538 
S      13.72973671      20.83051321      24.33778505 
S      20.87913563      20.94360014      10.36100570 
S      25.52933133      19.46345544      15.07879280 
S       8.99684323      19.51793235      19.64000478 
C      18.82399934      14.40665063      26.03725068 
C      15.57314685      14.75632197       8.54152652 
C      23.37816325      22.96192518      18.91561251 
C      11.13681658      23.05487801      15.84164576 
C      20.92153364       8.82590624      18.75984973 
C      13.54434732       8.90943015      15.62827260 
C      10.58785823      15.43840300      22.99105691 
C      23.85382902      15.49348962      11.74862308 
C       8.20017682      15.03544043      19.67501046 
C      26.29621032      15.05046156      14.98650056 
C      22.81067600      21.14187514      23.86223014 
C      11.67215003      21.42435830      10.86012601 
C      14.69171313      26.22758824      18.99564812 
C      19.95249700      26.24672885      15.88618803 
C      23.81500045      15.45502563      24.22786407 
C      10.52891930      15.75465295      10.37701136 
C      19.79941563      16.03053399       8.00543894 
C      14.63193199      15.82539048      26.47434718 
C      19.62805976      24.96304220      21.67787643 
C      14.97068321      25.04499206      13.07236709 
C      21.18215395      11.61583717      10.58800176 
C      13.18645992      11.39859449      23.84156919 
C      24.70002160      11.15566389      16.06508508 
C      19.77816126       7.85786243      15.23549595 
C      14.65178679       7.74821937      19.12364357 
C      26.32344905      18.22354676      19.93593778 
C       8.13099633      18.40637088      14.70500585 
C      18.80116510      24.27109097      11.01454168 
C      15.79433862      24.11599055      23.74316276 
C      23.46342794      24.09980159      15.20820463 
C      11.09076963      24.10649042      19.57181284 
C      17.38175530      21.35727663       8.68229207 
C      21.00285267       9.96859062      23.27729295 
C      13.50259373      10.25557863      11.13768387 
C      11.90582958      20.66552108      24.41699144 
C      22.70343374      20.77351438      10.34338718 
C       9.07283016      13.39923319      13.66380120 
C      18.40345731       9.25464585      11.29992243 
C      16.05023799       9.12297300      23.10484103 
C       8.41204381      20.98015980      20.57811436 
C      26.11018286      20.94429097      14.16982109 
C      17.20294964      21.18982989      26.03593568 
H      16.71016696      20.39806714      26.61402572 
H      16.44656213      21.76376974      25.49441059 
H      17.76904694      21.84752555      26.70565504 
C      25.28484627      13.15879181      20.91290777 
H      26.25885453      12.72747792      20.65355177 
H      24.86268864      12.63949123      21.78251044 
H      25.39640498      14.22736774      21.12569254 
C       9.89086266      11.06864154      18.37491743 
H       9.04936115      11.74303917      18.17364868 
H       9.52253186      10.11267892      18.76423514 
H      10.45002351      10.91118971      17.44809332 
H      26.50705399      15.72178127      14.14451385 
H      25.63817142      14.23731101      14.65956504 
H      27.23563196      14.64244824      15.37699225 
H      26.74981861      17.64819420      19.10561294 
H      27.11476525      18.52410997      20.63232868 
H      25.81631537      19.11046077      19.54429888 
H      26.63733842      20.60049929      13.27222623 
H      26.80561503      21.48933539      14.81868193 
H      25.26944558      21.58849574      13.88611564 
H      24.13344151      23.62560696      18.48003590 
H      23.06453569      23.34107261      19.89571500 
H      22.50342803      22.89156657      18.25776699 
H      23.62294382      24.94081213      14.52369432 
H      24.41808524      23.80556748      15.66214604 
H      22.75707929      24.38283638      15.99523651 
H      20.08960333      25.40845047      20.78851740 
H      19.67616736      25.66874074      22.51542821 
H      18.58548808      24.70769818      21.46018279 
H      21.01763909      26.22024120      15.62741049 
H      19.67771423      27.25336789      16.22139356 
H      19.36032388      25.96269148      15.01097100 
H      17.80635249      24.33057161      10.55564826 
H      19.37021626      23.44509117      10.57431039 
H      19.33970949      25.21385840      10.86212224 
H      14.98168666      27.24513720      18.70949141 
H      15.26310952      25.90083042      19.86961086 
H      13.62103236      26.19895668      19.22994115 
H      14.94024123      25.75869581      12.24078829 
H      16.00763673      24.77572183      13.29945965 
H      14.50292000      25.48769742      13.95973964 
H      10.13809159      23.82449928      19.10602486 
H      11.80046209      24.41124428      18.79620772 
H      10.92832755      24.92755797      20.27950830 
H      16.83470116      22.04720004       8.02940991 
H      17.87434524      20.58208858       8.08198303 
H      18.13552558      21.90109641       9.25755863 
H      23.04649380      20.93865330       9.31531030 
H      23.02329850      19.78445157      10.68439605 
H      23.11314888      21.54606838      11.00471325 
H      23.39468508      14.92868951      10.92837854 
H      23.51880467      15.07603562      12.70556716 
H      24.94523701      15.44341363      11.67153684 
H      20.08120246      16.57310779       7.09579728 
H      19.28006580      15.09921275       7.74564917 
H      20.69138782      15.79232673       8.59199253 
H      21.05779556      11.02482742       9.67337725 
H      20.59128021      11.18559165      11.40250866 
H      22.24027364      11.63344450      10.87525162 
H      18.89640247       9.62965070      10.39563182 
H      17.97441714       8.26571921      11.10087708 
H      19.11519119       9.19456213      12.13083555 
H      13.26935514       8.04341206      15.01497814 
H      13.19496227       9.83084067      15.14998101 
H      13.08643924       8.82422627      16.62197882 
H      12.66324913      10.01284396      10.47573455 
H      13.93011187       9.33856909      11.56138396 
H      14.27804655      10.79389810      10.58368163 
H      15.80468167      14.37750936       7.53919281 
H      16.14920843      15.66594332       8.74180043 
H      14.50004172      14.96873333       8.62430181 
H       9.45907196      12.91247228      12.75943129 
H       8.97072896      14.47725918      13.49823734 
H       8.10097158      12.97003073      13.93455910 
H      10.21326136      15.08580693       9.56804068 
H      10.36606520      16.80062768      10.08877871 
H       9.96338983      15.53647366      11.28698918 
H       7.34917661      18.74613203      14.01593525 
H       8.64542786      19.26913718      15.13865939 
H      10.68966547      21.45064340      10.37512990 
H      12.40468224      21.97439539      10.25612098 
H      11.60908947      21.87311157      11.85604109 
H      11.43772626      23.45479260      14.86594954 
H      12.02116401      22.95648736      16.48236496 
H      10.39750671      23.71702491      16.30614119 
H      20.27844423       7.37723123      14.38696714 
H      18.80752994       7.37953030      15.41291661 
H      20.39578595       7.75483910      16.13183049 
H      25.11347379      10.23849040      15.62977355 
H      24.14156513      10.92045292      16.97569508 
H      25.51132947      11.84890684      16.31917113 
H      23.98491508      16.49001839      24.54952040 
H      24.40477654      15.25191877      23.32971244 
H      24.09646102      14.75984108      25.02724290 
H      19.89949202      14.61329378      25.97283399 
H      18.57995871      13.98834817      27.02073680 
H      18.25836061      15.32953045      25.87012776 
H      15.09091874      14.85337671      26.69641481 
H      13.73668084      15.67238246      25.86412506 
H      14.36882245      16.34198412      27.40438042 
H      12.12568190      11.44269676      23.56748126 
H      13.31172677      10.77924387      24.73705278 
H      13.75738906      10.98386373      23.00528472 
H      16.46798829       8.13212970      23.31781154 
H      15.34306845       9.06297497      22.27022035 
H      15.55822426       9.51615837      24.00191231 
H      20.62373792       9.04202892      22.82896076 
H      20.19088093      10.45753074      23.82465045 
H      21.83471921       9.74600438      23.95477327 
H      15.62242922       7.24669435      19.02401707 
H      14.11801001       7.68507068      18.17110074 
H      22.07551750      21.68525128      24.46936516 
H      22.89744992      21.61740848      22.88066349 
H      23.78498452      21.13833520      24.36419020 
H      11.47482294      21.43676821      23.76794433 
H      11.59826287      20.83524950      25.45554643 
H      11.57374662      19.67416674      24.09329047 
H      15.26990721      25.06037112      23.93067929 
H      16.79526792      24.14805926      24.19158293 
H      15.21878780      23.28346439      24.16209478 
H       7.69600178      21.53431576      19.96058609 
H       9.24896261      21.62925872      20.86216880 
H       7.26444326      14.62963779      19.27344081 
H       7.98289979      15.67636406      20.53860489 
H       8.86655159      14.21981061      19.97535788 
H       9.49820660      15.43261916      23.10590920 
H      11.04504275      14.81912862      23.77164210 
H      10.86373086      15.03712292      22.00907252 
H      21.38349496       8.76958803      17.76575127 
H      21.18612605       7.93449722      19.34033020 
H      21.28366014       9.72258902      19.27457723 
H      14.06403746       7.26728089      19.91340693 
H       7.90729112      20.61489732      21.48056749 
H       7.69039800      17.80172377      15.50646587 
