322
Properties=species:S:1:pos:R:3 i=321 optimized=T E=-4324.1232858021 pbc="F F F" jobid=102_44-Ag-40_2-000001-PBE
Au      16.87573096      17.07993176      15.78430175 
Au      17.64743306      17.02288231      18.65895930 
Au      18.65486223      14.97505905      16.85288748 
Au      15.87699277      14.99613042      17.53445348 
Au      19.56633369      17.81336019      16.57541611 
Ag      14.97538352      17.79736385      17.90667036 
Ag      17.27832289      19.54106079      17.26827009 
Au      17.91289690      15.09666460      13.83974590 
Ag      16.68068521      14.97358395      20.50920788 
Au      18.18146983      19.50642795      20.12654267 
Au      16.36048188      19.60387104      14.37343625 
Au      19.47989335      14.93098025      19.79448680 
Ag      15.11868277      15.01667349      14.63243875 
Au      18.69864588      17.97562339      13.61003323 
Ag      15.88556128      17.83727975      20.86535454 
Ag      20.40913947      17.71839497      19.44972747 
Au      14.15047036      17.79831227      15.04142633 
Au      21.40403182      15.72287701      17.62186197 
Ag      13.14777635      15.76934840      16.82060165 
Ag      13.95722941      15.73808695      19.67709875 
Au      20.61200321      15.81899281      14.69209837 
Au      15.38210225      20.30655844      19.40017225 
Ag      19.13024281      20.38128134      15.14591231 
Au      20.07622644      20.32808937      17.99997368 
Ag      14.54671801      20.39972171      16.59880216 
Au      17.71155149      12.73910512      18.70023261 
Au      16.83912736      12.82025997      15.63383694 
Ag      16.04177648      17.13901604      12.82892932 
Au      18.54081889      16.98294840      21.59367564 
Au      19.66773006      13.03133720      15.02128211 
Au      14.90003917      12.97559907      19.29651700 
Ag      13.13593887      18.50104059      19.99673988 
Ag      21.43118604      18.63134537      14.51819520 
Ag      20.46717576      12.92281902      17.83247906 
Ag      14.06246018      13.00436890      16.50145794 
Ag      22.26889776      18.54007378      17.26695747 
Ag      12.33522355      18.62701007      17.24257056 
Au      17.73501247      22.04469179      18.64896228 
Au      16.83246484      22.10251534      15.96692186 
Ag      20.42015260      19.20558645      22.00319119 
Au      14.13992689      19.37200202      12.53641260 
Ag      18.77869864      14.24555101      22.49371527 
Au      15.84146276      14.39964262      11.93642096 
Ag      17.28268715      19.44058942      11.55418646 
Au      17.43366496      19.28963622      22.93497448 
Au      18.34204045      16.25964171      11.23814934 
Au      16.27697036      16.06172449      23.18145055 
Ag      21.33018957      16.27196410      21.75894134 
Au      13.28453753      16.38250686      12.71334333 
Au      23.21192545      16.48780171      15.47689250 
Ag      11.29551833      16.51626877      18.87336971 
Au      22.40717881      13.72269739      15.85041933 
Au      12.14935991      13.76378224      18.54921552 
Ag      14.97433130      22.81020076      18.17751100 
Au      19.62613049      22.82627123      16.55254668 
Ag      17.81143084      12.38923395      12.88048763 
Ag      16.73703808      12.22687071      21.45454036 
Ag      20.24265211      14.21480957      12.40875250 
Au      14.39824655      14.02605781      21.88494728 
Au      21.82329142      21.11211414      15.92758893 
Ag      12.70778917      21.09799713      18.80010135 
Au      13.66128462      16.90651064      22.31751780 
Au      20.98052955      17.17541849      12.11811426 
Au      22.27238191      19.82156260      19.82686777 
Au      12.36164089      20.03928965      14.74964948 
Au      20.01172834      21.70151983      20.46505136 
Au      14.65812567      21.85937008      14.12760041 
Au      15.75649580      10.88571678      17.43263139 
Au      18.75516856      10.84738993      16.78764447 
Au      22.13548945      14.10796321      19.91165264 
Au      12.42290663      14.20951196      14.46725497 
Au      16.98454467      21.76380052      21.42310651 
Ag      17.56354413      21.87271066      13.17020453 
Au      19.71608788      12.15395811      20.57880521 
Ag      14.76525068      12.26464345      13.74252914 
Ag      23.22596374      16.84562797      19.45327539 
Au      11.39926202      17.03390388      14.98260948 
Au      20.02163518      20.24928786      12.47590819 
Au      14.50517506      20.10522088      22.03439949 
Au      20.57275651      23.22774218      13.57585528 
Ag      14.03966184      22.96624465      21.05254022 
Au      24.79006703      14.62129901      17.83209497 
Ag      10.03250215      14.72751327      16.55482344 
Au      17.10206112      24.95443442      17.28838044 
Ag      21.56682166      10.81600296      14.82171300 
Ag      12.89790123      10.85858301      19.48266988 
Au      16.29071123       9.77849483      13.66016992 
Au      18.24578343       9.61181735      20.54396959 
Au      10.39386837      18.27589029      21.08042403 
Ag      24.07918966      18.31047533      13.33668846 
Au      24.55011712      20.36397447      16.90934911 
Au      10.06887311      20.45383528      17.63257857 
Ag      23.56500419      18.41561069      22.10900725 
Ag      10.97234972      18.57314358      12.43705605 
S      19.50071819       9.61969551      14.67721702 
S      14.93197178       9.59238604      19.46815992 
Ag      14.78712415      18.61961920      24.61177785 
Ag      19.90871812      18.90955118       9.81011152 
Au      18.44636234      13.34018864      10.00433621 
Au      16.17195553      13.13710705      24.36031077 
Ag      19.23343327      21.94877817      23.39709580 
Ag      15.29731042      22.13037807      11.20835159 
S      18.54687770      24.12625890      12.76678286 
S      16.08548402      23.96905084      21.93756589 
S      24.25215640      12.98510149      19.45083903 
S      10.40762711      12.92316930      14.95888153 
Au      12.68872801      13.35516451      11.58483994 
Au      21.85712459      13.36273380      22.86726583 
S       8.94320901      16.23088067      18.11310639 
S      25.53430936      16.18279399      16.22140080 
S      11.27068732      17.08001334      22.92495953 
S      23.27450922      17.22536614      11.30049984 
S      22.76761609      22.60990366      14.19963191 
S      11.71353846      22.71796911      20.42521178 
S      22.13771972      19.32857169      23.81587877 
S      12.45649390      19.47640114      10.75043325 
S      19.07148566       8.94180873      18.45484605 
S      15.52826429       8.99826040      15.72992904 
S      16.09285095      13.38074257       9.70492782 
S      18.50328396      13.08953444      24.69824830 
S      18.39338854      20.29105252      24.95501614 
S      16.19708256      20.56313910       9.62374999 
S      24.21430150      21.19487631      19.10966674 
S      10.45287790      21.39780802      15.49011239 
S      14.75369357      25.17439292      17.43508072 
S      19.45372504      25.16494694      17.22721523 
S      17.04932815      10.39529585      11.51939378 
S      17.43479911      10.12710000      22.69583202 
S      16.11690178      16.83847461      25.54446425 
S      18.58757570      17.10185418       8.92998169 
S      22.10711357      15.40674017      23.99666530 
S      12.51907753      15.46669903      10.55290607 
S      23.69145355      11.95625517      14.76839886 
S      10.80393797      12.04382445      19.67498415 
S      13.80278682      13.16925291      24.10230662 
S      20.81191806      13.26144691      10.19126785 
S      21.61346494      11.23401607      21.87263258 
S      12.80937109      11.19903406      12.51098425 
S      20.67976413      23.40108699      22.05534013 
S      13.89754140      23.58643188      12.59826285 
S      25.20910881      17.10968915      20.91873468 
S       9.34409873      17.23774408      13.68286057 
S      13.72185952      20.78996692      24.23595996 
S      20.86149015      21.09198931      10.32142110 
S      25.51694816      19.50431199      14.91194591 
S       9.04030771      19.49996441      19.55661112 
C      18.88560293      14.31907624      26.00310374 
C      15.72038289      14.68185412       8.47091736 
C      23.49601252      22.87113635      18.93006379 
C      11.17608734      23.05882410      15.76163732 
C      20.89066613       8.87401978      18.68796779 
C      13.71724221       8.80087349      15.51687911 
C      10.63346740      15.37151533      22.73526294 
C      23.86331602      15.49358762      11.45735382 
C       8.12618731      15.16092909      19.36262918 
C      26.34447559      15.16276049      14.92892013 
C      22.72591139      21.05704474      24.02226763 
C      11.91319552      21.21300995      10.51064904 
C      14.54890235      26.28440385      18.88837568 
C      19.78341834      26.27400309      15.80216397 
C      23.90835676      15.59199015      24.30097527 
C      10.72314738      15.73909151      10.29030997 
C      19.80178273      16.06418679       8.02515912 
C      14.93288653      15.79554893      26.48262376 
C      19.75062732      24.90719768      21.56985249 
C      14.83492107      25.09646483      13.05805908 
C      21.27172295      11.51320796      10.51205141 
C      13.26503213      11.43723454      23.82474924 
C      24.71096761      11.16523975      16.07691931 
C      19.81007945       7.86475447      15.12084684 
C      14.53048207       7.87101277      18.95698144 
C      26.39176119      18.22721769      20.06718272 
C       8.20387271      18.33731850      14.60902112 
C      18.86554892      24.37436888      10.97657999 
C      15.75983972      24.10151879      23.73877659 
C      23.44081832      24.06154429      15.09858526 
C      11.22705756      24.24228664      19.52401328 
C      17.44152014      21.43141076       8.58872591 
C      20.97925154      10.17660921      23.22923138 
C      13.43091931      10.15168254      11.13758909 
C      11.89526858      20.61795034      24.24883029 
C      22.68981524      20.96103158      10.39882999 
C       9.22733561      13.22483811      13.58745419 
C      18.40217903       9.21436889      11.14921360 
C      16.02881340       8.98193494      22.96701805 
C       8.52374594      20.97196151      20.51725948 
C      26.06139376      21.00563975      14.01220930 
C      17.09194073      21.07162623      25.98477919 
H      16.58379175      20.27628414      26.54469172 
H      16.35782649      21.61636760      25.38509950 
H      17.58240736      21.75875137      26.68452258 
C      25.38921779      13.28289451      20.85622380 
H      26.36565373      12.85499313      20.60036940 
H      24.96977718      12.76683085      21.72877145 
H      25.49231613      14.35498275      21.05966708 
C       9.68545919      11.31772048      18.40990299 
H       8.84414902      12.00511511      18.25894404 
H       9.31472624      10.36071323      18.79497909 
H      10.19352658      11.16606392      17.45299312 
H      26.56738244      15.82328449      14.08157222 
H      25.69595197      14.34136415      14.60416011 
H      27.27952771      14.76499556      15.34009097 
H      26.71417805      17.75222366      19.13375112 
H      27.25468949      18.36824264      20.72845407 
H      25.94422031      19.20089718      19.84611835 
H      26.56522226      20.67816917      13.09494831 
H      26.77229712      21.55471066      14.64021726 
H      25.20793008      21.64487700      13.75622197 
H      24.26150077      23.53358746      18.51074624 
H      23.20758239      23.21367199      19.93137463 
H      22.60877135      22.85139797      18.28546232 
H      23.59944556      24.87627997      14.38277358 
H      24.40023356      23.76430814      15.54028197 
H      22.75750830      24.38460676      15.89045853 
H      20.12186234      25.25392440      20.59869313 
H      19.94481295      25.66977426      22.33379113 
H      18.67364869      24.71298498      21.50676935 
H      20.86603802      26.28164521      15.62887399 
H      19.44469021      27.28085649      16.07213125 
H      19.27239861      25.92979911      14.89743239 
H      17.89586375      24.47179662      10.47300640 
H      19.42387350      23.52985667      10.55622555 
H      19.44153485      25.29772474      10.84688890 
H      14.93241286      27.27739691      18.62984414 
H      15.07252227      25.89644836      19.76828853 
H      13.47600987      26.35226972      19.10440600 
H      14.66350036      25.84337754      12.27368023 
H      15.90765925      24.89384802      13.14964352 
H      14.45053920      25.46843982      14.01492115 
H      10.23300293      24.08043277      19.08955264 
H      11.93664081      24.47518975      18.72271761 
H      11.18094625      25.07751038      20.23213239 
H      16.92109704      22.15161497       7.94729586 
H      17.93791086      20.67755415       7.96469354 
H      18.19527217      21.94853267       9.18881541 
H      23.08178860      21.20810125       9.40493850 
H      23.01323231      19.95188992      10.67371393 
H      23.06072017      21.68366079      11.13491743 
H      23.33696633      14.88266695      10.71453498 
H      23.66652949      15.09759297      12.46015030 
H      24.94058191      15.48333067      11.25449838 
H      20.06359958      16.58789385       7.09833388 
H      19.32917529      15.10156715       7.79173835 
H      20.70409475      15.88432267       8.61736655 
H      21.10026443      10.92217438       9.60551607 
H      20.70329218      11.09342776      11.34791271 
H      22.33973778      11.50040416      10.76061570 
H      18.90276642       9.56738712      10.24000532 
H      17.96570213       8.22613688      10.96608224 
H      19.11615049       9.16109699      11.97843268 
H      13.53708271       7.92640908      14.88081045 
H      13.26872812       9.68856977      15.05722751 
H      13.27557376       8.63361365      16.50610367 
H      12.59690365       9.94352090      10.45813626 
H      13.80241109       9.21757784      11.57628354 
H      14.24887528      10.63601167      10.59535224 
H      15.95062154      14.27707969       7.47832768 
H      16.30779371      15.58960303       8.65063427 
H      14.64936872      14.90741439       8.54424736 
H       9.63435371      12.76479088      12.67845533 
H       9.06715565      14.29751189      13.42966446 
H       8.27567253      12.74796540      13.85210950 
H      10.38568511      15.04934906       9.50805595 
H      10.59293263      16.77599887       9.95517267 
H      10.14866610      15.57291831      11.20627244 
H       7.31927783      18.49501785      13.98021089 
H       8.66589585      19.30274449      14.83573275 
H      10.94552301      21.19665336       9.99552434 
H      12.65564683      21.72000795       9.88079056 
H      11.81520971      21.74774521      11.46011981 
H      11.47892373      23.44550400      14.78076764 
H      12.05577738      23.00904731      16.41449288 
H      10.40805817      23.70341202      16.20314351 
H      20.36422259       7.38930464      14.30357275 
H      18.83404708       7.37893730      15.23996495 
H      20.37270884       7.76525809      16.05344576 
H      25.12705595      10.23927393      15.66307318 
H      24.12492018      10.94379593      16.97352277 
H      25.52204798      11.85272233      16.34648753 
H      24.06139796      16.60622853      24.69141917 
H      24.49419083      15.46543982      23.38604868 
H      24.21573519      14.85428691      25.05028402 
H      19.96095218      14.52956159      25.94746839 
H      18.64073726      13.87773635      26.97581685 
H      18.32010358      15.24734585      25.85891507 
H      15.43008391      14.84920843      26.73216895 
H      14.03081480      15.57846997      25.90324056 
H      14.66485019      16.32946452      27.40180827 
H      12.20972018      11.46290840      23.52805842 
H      13.37234279      10.88086082      24.76304032 
H      13.85287231      10.96178180      23.03384869 
H      16.42072445       7.96505205      23.08192154 
H      15.32176936       9.01863181      22.13083138 
H      15.53299471       9.28753659      23.89597097 
H      20.56225021       9.26816137      22.77814376 
H      20.19980087      10.68522895      23.80592669 
H      21.82725552       9.92562790      23.87688599 
H      15.16960164       7.59227777      18.10981979 
H      13.47810368       7.75800035      18.68204171 
H      22.01841036      21.57932572      24.67903033 
H      22.78541815      21.58790623      23.06727315 
H      23.71483330      21.03694938      24.49384583 
H      11.46895669      21.33372438      23.53665614 
H      11.55362693      20.85555531      25.26364798 
H      11.57997900      19.60290842      23.98908821 
H      15.22044299      25.04072857      23.91204424 
H      16.71862129      24.12718160      24.27071420 
H      15.15264654      23.26196603      24.09690197 
H       7.80044694      21.52916848      19.91025292 
H       9.38553708      21.60647742      20.76149797 
H       7.22056611      14.72989281      18.92044488 
H       7.84800082      15.78926838      20.21786173 
H       8.78983854      14.35706007      19.70199286 
H       9.54598500      15.38729033      22.86738662 
H      11.10146563      14.76610882      23.52104591 
H      10.89357429      14.95472575      21.75547642 
H      21.36235518       8.79553584      17.70010747 
H      21.13285842       7.98621110      19.28387430 
H      21.26215601       9.77118727      19.19555399 
H      14.75256494       7.21919718      19.81093715 
H       8.03783469      20.61777906      21.43372061 
H       7.91582398      17.83689094      15.54100804 
