322
Properties=species:S:1:pos:R:3 i=193 optimized=T E=-4399.7309172163 pbc="F F F" jobid=102_44-Ag-59_8-000010-PBE
Au      16.84227647      17.06245115      15.76375235 
Ag      17.68352362      17.02540340      18.56077798 
Au      18.61725154      14.94641120      16.74684376 
Ag      15.90113871      14.99158082      17.57420548 
Ag      19.54431284      17.78577840      16.47922216 
Ag      15.00973033      17.79653059      17.87644372 
Ag      17.29080053      19.56118810      17.18906443 
Au      17.83510191      15.02851425      13.82543970 
Au      16.63736307      15.02657031      20.48621860 
Ag      18.22924661      19.54483420      19.99014807 
Ag      16.35081571      19.60039330      14.33556421 
Ag      19.42824360      14.92806429      19.63574923 
Ag      15.05217225      15.06546930      14.57992137 
Au      18.67304296      17.92583488      13.59456482 
Au      15.86622977      17.86624344      20.75917649 
Au      20.43897285      17.74567347      19.34707794 
Au      14.11710028      17.83160413      14.95605099 
Au      21.36019003      15.67330400      17.54548305 
Au      13.15893186      15.78429582      16.81732013 
Ag      13.94862841      15.77310508      19.67870004 
Au      20.56866362      15.77538158      14.57610525 
Au      15.41839201      20.33272359      19.32640182 
Ag      19.08391637      20.37570492      15.05197126 
Au      20.07307364      20.32890509      17.86811369 
Au      14.54096970      20.39042978      16.50874620 
Ag      17.63120400      12.77147543      18.61593914 
Ag      16.85345637      12.84012567      15.61794379 
Ag      15.97580004      17.14469104      12.82867347 
Au      18.57518337      17.01247034      21.42555479 
Ag      19.65542162      12.98209377      14.95402019 
Ag      14.83836652      12.98891362      19.31393461 
Ag      13.11915844      18.53866462      19.94853271 
Ag      21.41580942      18.54175261      14.40274931 
Ag      20.38868002      12.90096794      17.75626472 
Au      14.13617645      13.04197676      16.47962733 
Ag      22.23881853      18.54661871      17.15126283 
Au      12.32739370      18.58426967      17.22281950 
Ag      17.77538215      22.09567509      18.56011061 
Ag      16.87012393      22.10766721      15.85702363 
Ag      20.43896252      19.22769235      21.86940460 
Ag      14.08866367      19.38335562      12.47286205 
Ag      18.84146877      14.30998178      22.41008261 
Ag      15.78773106      14.41124699      11.85159560 
Ag      17.28942881      19.36166869      11.53200859 
Au      17.35174010      19.24736796      22.80955145 
Au      18.19653729      16.19432633      11.23182688 
Ag      16.35919050      16.19945791      23.15442027 
Ag      21.34576333      16.30866959      21.67240602 
Ag      13.13869370      16.45559908      12.69972704 
Au      23.17402939      16.47453293      15.38583143 
Ag      11.24920356      16.50289230      18.86259474 
Au      22.35034282      13.69958028      15.80608020 
Au      12.14239450      13.77130014      18.48704696 
Au      15.00358504      22.77288788      18.01175475 
Ag      19.65205329      22.80335076      16.46073176 
Ag      17.69868231      12.36590810      12.87689148 
Au      16.74569338      12.40515263      21.41265839 
Ag      20.08758624      14.16793864      12.30497810 
Ag      14.41352417      14.19061357      21.98002537 
Au      21.79883373      21.06319374      15.72030486 
Ag      12.68567722      21.10197430      18.67241107 
Ag      13.65922499      17.07252453      22.32067400 
Ag      20.87740269      17.14017646      11.96965558 
Ag      22.35790380      19.86829918      19.70502462 
Au      12.30093628      19.99037176      14.69889935 
Au      20.06785127      21.73208982      20.27264155 
Ag      14.56896809      21.83536088      14.11554399 
Au      15.73584141      10.89577147      17.40873117 
Ag      18.67950364      10.77148138      16.73733200 
Ag      22.11635731      14.04216096      19.86542255 
Au      12.39309297      14.23127974      14.46514240 
Au      17.00590754      21.73025438      21.32482588 
Ag      17.49554711      21.84421657      13.06203454 
Au      19.71291400      12.20507438      20.46499899 
Ag      14.69477124      12.32841210      13.69528277 
Au      23.17112119      16.82111098      19.32879278 
Ag      11.27671064      16.91731242      15.03822533 
Ag      20.01636745      20.16361062      12.41780906 
Ag      14.54226116      20.12193284      21.98192734 
Ag      20.55226063      22.96176464      13.50863813 
Ag      14.10074594      22.99268474      20.90178627 
Ag      24.52489987      14.60292985      17.75572148 
Au       9.71161964      14.58558642      16.58304394 
Au      17.41739107      24.93526048      17.20757936 
Ag      21.63833978      10.87986476      14.71163210 
Ag      13.04623098      10.70533176      19.44263220 
Au      16.19395992       9.81906279      13.58202958 
Ag      17.96818200       9.79538407      20.40389158 
Au      10.37698280      18.34390362      21.00985562 
Ag      24.08576292      18.21428635      13.16979597 
Ag      24.50922149      20.33867912      16.66551470 
Au      10.04364315      20.44262857      17.48452179 
Au      23.67525085      18.44336966      22.04366249 
Ag      10.88313264      18.61928306      12.45282543 
S      19.59664339       9.66258202      14.59713198 
S      15.11959895       9.50109138      19.46678795 
Ag      14.70182048      18.79998692      24.62734022 
Au      19.82817993      18.95513097       9.66411196 
Ag      18.23191021      13.27879275      10.03075259 
Ag      16.11408834      13.32375563      24.28885400 
Ag      19.29422280      21.89906585      23.23841249 
Au      15.23661638      22.13182015      11.12954454 
S      18.55912241      24.07214564      12.72738773 
S      16.15866839      23.97214115      21.79015243 
S      24.19539657      12.78548748      19.32032887 
S      10.29869845      13.03479780      14.89735646 
Ag      12.77194526      13.58043112      11.56074504 
Au      21.83368146      13.26470897      22.73346003 
S       8.86217387      16.04605799      18.22313604 
S      25.46368706      16.20983430      16.18773986 
S      11.22288396      17.21110580      22.90375195 
S      23.23241191      17.09115195      11.19860531 
S      22.88479775      22.53964555      14.06399900 
S      11.75826666      22.69518899      20.35592893 
S      22.25148465      19.46058736      23.61303633 
S      12.28508956      19.57422550      10.74393707 
S      18.85315330       8.83410744      18.39828307 
S      15.40070170       9.04807734      15.64036330 
S      15.85075983      13.38130652       9.58131662 
S      18.49834910      13.31245020      24.67274204 
S      18.43463351      20.23905594      24.77304049 
S      16.14425541      20.54429022       9.64477442 
S      24.27836595      21.25510079      18.89663792 
S      10.39151803      21.41611467      15.34138909 
S      15.06098847      25.11221570      17.33902354 
S      19.75712852      25.19922734      17.11472695 
S      17.01001868      10.40476156      11.44305660 
S      17.32983797      10.40355950      22.67986342 
S      15.99094949      16.98426913      25.50243450 
S      18.59078669      17.08025381       8.94968543 
S      22.16158296      15.31202887      23.82593355 
S      12.48844216      15.68942979      10.44027881 
S      23.72398703      12.07768658      14.60067339 
S      10.98600737      11.93696300      19.60848886 
S      13.66812410      13.39379576      24.18604749 
S      20.66771867      13.19562727      10.12496684 
S      21.53663876      11.12583496      21.77345214 
S      12.76367063      11.33203238      12.40906379 
S      20.73090729      23.37861863      21.93368448 
S      13.94635147      23.59732034      12.48100229 
S      25.14735936      17.12488453      20.72726529 
S       9.27529924      17.25606683      13.62903655 
S      13.69029592      20.94564864      24.14768691 
S      20.84572083      21.02450249      10.21473139 
S      25.56154507      19.39360483      14.68932762 
S       9.03275294      19.51390771      19.43180802 
C      18.93007005      14.57339603      25.93396163 
C      15.54373908      14.72568751       8.36841909 
C      23.54929334      22.92945122      18.71068112 
C      11.15419402      23.05642175      15.63629451 
C      20.65601538       8.62764900      18.68113301 
C      13.57775649       8.96513274      15.44234020 
C      10.60894849      15.48950402      22.75007383 
C      23.77235283      15.34910276      11.43339853 
C       8.14781140      14.95127245      19.51239335 
C      26.33003397      15.22655600      14.90387794 
C      22.89751675      21.17104446      23.77347162 
C      11.70421893      21.31121283      10.60100072 
C      14.80017291      26.18633162      18.80760000 
C      20.01384197      26.28666871      15.65444182 
C      23.97637331      15.45732955      24.06530886 
C      10.67797166      15.86475463      10.17465435 
C      19.82116256      16.04023380       8.07309697 
C      14.81275769      15.95366913      26.46375024 
C      19.81173365      24.90261170      21.48863413 
C      14.94665262      25.08562321      12.86874318 
C      21.19828191      11.47726267      10.50193761 
C      13.01817373      11.71293823      23.82353989 
C      24.82090537      11.27644114      15.83952500 
C      20.00545767       7.92320100      15.05512804 
C      14.81639863       7.77579964      18.91695720 
C      26.29859762      18.23945896      19.83569981 
C       8.11650148      18.31287856      14.58400122 
C      18.84139146      24.38200757      10.93815858 
C      15.85393880      24.14730250      23.59142897 
C      23.45227664      24.04551312      14.95025308 
C      11.24708040      24.21547090      19.45869338 
C      17.33465541      21.44587223       8.57837179 
C      20.83358532      10.14184739      23.15252358 
C      13.39447848      10.34189849      10.99542377 
C      11.85880767      20.79707942      24.14471027 
C      22.66397278      20.77564897      10.18027713 
C       9.13783813      13.36820979      13.51920471 
C      18.35884767       9.20034359      11.13595208 
C      15.84901678       9.39689410      23.06829349 
C       8.49530702      20.99858451      20.36074674 
C      26.13519713      20.86944458      13.76218171 
C      17.19499285      21.05937918      25.84924296 
H      16.69054092      20.27888755      26.43297440 
H      16.45225814      21.61947353      25.27452821 
H      17.73008550      21.73683160      26.52512004 
C      25.38818293      13.07602882      20.68689632 
H      26.35819020      12.65287597      20.40089569 
H      25.01221664      12.56433977      21.58124032 
H      25.50523059      14.14487051      20.89674311 
C       9.88458745      11.18428483      18.34240933 
H       9.05913860      11.88042777      18.14928400 
H       9.49401845      10.24518526      18.75115692 
H      10.41262101      10.99516106      17.40334074 
H      26.56742989      15.89524249      14.06676564 
H      25.71063073      14.39394918      14.55122049 
H      27.25998497      14.84146125      15.33855079 
H      26.60326263      17.74000792      18.90850863 
H      27.16968903      18.39704496      20.48265200 
H      25.83262758      19.20283724      19.60730715 
H      26.58839209      20.53645825      12.82127783 
H      26.89326907      21.38568452      14.36311723 
H      25.30073489      21.54979992      13.55033694 
H      24.29147063      23.58907406      18.24792716 
H      23.29374725      23.30328317      19.70901819 
H      22.63962589      22.89910281      18.09827954 
H      23.56694056      24.85576023      14.22073690 
H      24.42381541      23.82903558      15.41135091 
H      22.74014089      24.34309681      15.72722003 
H      20.19370254      25.27793941      20.53228191 
H      20.00226641      25.64088990      22.27700597 
H      18.73430248      24.71567045      21.41066813 
H      21.09578659      26.35861512      15.48982561 
H      19.61295212      27.28075885      15.87993942 
H      19.53447151      25.87846143      14.75784787 
H      17.86583856      24.47479612      10.44604725 
H      19.41101813      23.56690589      10.47818048 
H      19.39768024      25.32033685      10.83015404 
H      15.12202836      27.20093610      18.54682990 
H      15.35876904      25.82214187      19.67586229 
H      13.72751815      26.18629523      19.03468742 
H      14.85962104      25.78595442      12.03021622 
H      16.00068421      24.83489389      13.03691073 
H      14.52815033      25.53994248      13.77447705 
H      10.24929245      24.04519148      19.03612105 
H      11.94311206      24.45403314      18.64792548 
H      11.20286595      25.05117728      20.16642329 
H      16.77545444      22.14286286       7.94428948 
H      17.83770204      20.69630804       7.95478718 
H      18.08520593      21.98664290       9.16107852 
H      23.00791331      20.86481977       9.14375894 
H      22.94819030      19.79598252      10.57756254 
H      23.11427644      21.56500366      10.79367974 
H      23.23867246      14.72505210      10.70664946 
H      23.54742283      14.99453074      12.44569044 
H      24.85154991      15.29395596      11.25192424 
H      20.11406485      16.56527582       7.15678075 
H      19.33392689      15.08992874       7.82020966 
H      20.70216044      15.84395230       8.69190327 
H      21.05975856      10.85803555       9.60841041 
H      20.63581987      11.05183377      11.33895153 
H      22.26259235      11.50456950      10.76353872 
H      18.87554985       9.51226745      10.22092078 
H      17.91234240       8.21136274      10.98380504 
H      19.06003088       9.17251470      11.97797070 
H      13.33320770       8.08019740      14.84334551 
H      13.18453841       9.86201515      14.94998207 
H      13.13032243       8.87070360      16.44002494 
H      12.54589745      10.10734514      10.34259781 
H      13.83241368       9.41676590      11.38832671 
H      14.15881307      10.88345313      10.42788788 
H      15.74713119      14.33054603       7.36653660 
H      16.17998634      15.59702511       8.55699942 
H      14.49031927      15.02097366       8.44565595 
H       9.54196091      12.87094369      12.62844471 
H       9.03065142      14.44480914      13.34445046 
H       8.16493855      12.93456785      13.77888681 
H      10.37983136      15.18111340       9.37180561 
H      10.48544003      16.90138205       9.87023280 
H      10.10477554      15.64299604      11.07960041 
H       7.29951403      18.61280883      13.91786201 
H       8.60957180      19.20661597      14.97899538 
H      10.71653346      21.30971631      10.12628062 
H      12.41630834      21.85677011       9.96934244 
H      11.64221583      21.80449201      11.57595805 
H      11.44195836      23.46342918      14.65903712 
H      12.04500394      22.97509781      16.27059055 
H      10.40833894      23.70589528      16.10796670 
H      21.06994802       7.80072049      15.27394153 
H      19.73751404       7.28618840      14.20374609 
H      19.40991455       7.63891806      15.93193346 
H      25.19997947      10.34623926      15.40078431 
H      24.29793820      11.06648838      16.77711853 
H      25.65699685      11.95492593      16.04840921 
H      24.17435014      16.47786504      24.41616310 
H      24.52593180      15.28267977      23.13610222 
H      24.28605643      14.73278072      24.82654612 
H      19.99932729      14.79801953      25.83929112 
H      18.72889225      14.14707783      26.92360455 
H      18.34684090      15.49247498      25.80434460 
H      15.33801269      15.04430819      26.78252030 
H      13.93788390      15.66645094      25.87370789 
H      14.49713179      16.52320024      27.34467550 
H      11.95717806      11.80972172      23.56531038 
H      13.11812727      11.09048955      24.72010186 
H      13.54720050      11.24512184      22.98746087 
H      16.19519580       8.38587484      23.31502245 
H      15.16419119       9.35131611      22.21462473 
H      15.34864602       9.83306103      23.94000661 
H      20.36884196       9.24554820      22.72434006 
H      20.08351396      10.70977276      23.71299180 
H      21.66171531       9.85717336      23.81212452 
H      15.78807368       7.33934868      18.65584056 
H      14.15783397       7.73196573      18.04505713 
H      22.19908878      21.72491520      24.41352420 
H      22.97523384      21.67297315      22.80448080 
H      23.88188845      21.12857200      24.25244100 
H      11.45524530      21.48473132      23.39256345 
H      11.49961585      21.08360669      25.14008371 
H      11.53253845      19.77646439      23.92328624 
H      15.33950841      25.10283893      23.75094627 
H      16.81815998      24.15956307      24.11391595 
H      15.22888458      23.33009741      23.96962405 
H       7.78506826      21.54736000      19.73127301 
H       9.35308608      21.63464873      20.61378438 
H       7.24049157      14.47980114      19.11849480 
H       7.88682058      15.58656784      20.36790572 
H       8.86202047      14.18314991      19.82956469 
H       9.52218081      15.48515970      22.88596170 
H      11.09331299      14.90568369      23.54281976 
H      10.87231850      15.05798518      21.77710632 
H      21.13931206       8.41056955      17.72107374 
H      20.81126264       7.78196087      19.36114902 
H      21.10112813       9.52909227      19.11676191 
H      14.36810781       7.21952153      19.74799296 
H       7.99184732      20.65876198      21.27325996 
H       7.71965665      17.72104123      15.41696208 
