322
Properties=species:S:1:pos:R:3 i=222 optimized=T E=-4206.9364899982 pbc="F F F" jobid=102_44-Ag-09_8-000009-PBE
Au      16.84445723      17.03437688      15.87239698 
Au      17.69992291      17.01152850      18.76387037 
Au      18.63325734      14.95882911      16.88825619 
Au      15.90912393      14.94613216      17.68893140 
Au      19.53037661      17.76535950      16.62893666 
Au      15.02224062      17.75631063      18.01364633 
Au      17.26209757      19.56324442      17.32618187 
Au      17.85000469      15.04261691      13.91032071 
Au      16.63934045      14.96577925      20.62580468 
Au      18.24855646      19.55938869      20.21353894 
Au      16.27583065      19.61645491      14.49116483 
Au      19.44946935      14.93711714      19.92955291 
Au      15.04295385      15.02013364      14.63059226 
Au      18.62962745      17.94203268      13.67307701 
Au      15.90995706      17.86433848      20.98398010 
Au      20.45132742      17.73089710      19.52939506 
Au      14.10278444      17.78179416      15.11573495 
Au      21.39142069      15.71306661      17.68614745 
Au      13.14690703      15.73250616      16.90991267 
Au      13.91811075      15.67346311      19.84828365 
Au      20.58654215      15.77036961      14.70823629 
Au      15.46410937      20.30940785      19.48732295 
Au      19.06528828      20.37237127      15.20767517 
Au      20.04498212      20.37235065      18.05175728 
Ag      14.48671926      20.38910312      16.68702728 
Au      17.65919923      12.71523492      18.78044254 
Au      16.87981595      12.78542699      15.66634270 
Au      15.95309129      17.12440726      12.87432775 
Au      18.59932521      17.03323429      21.76299856 
Au      19.70960653      12.98919462      15.09747897 
Au      14.81024868      12.90081484      19.38808785 
Au      13.15682463      18.46291264      20.12011163 
Au      21.38804165      18.54835466      14.53127296 
Au      20.42596316      12.95358155      17.93932306 
Au      14.12266428      12.97173969      16.56503238 
Au      22.24063969      18.55838206      17.29815507 
Au      12.32505656      18.57756896      17.37926000 
Ag      17.74876638      22.09531190      18.69356131 
Ag      16.75490199      22.15653809      16.05034539 
Au      20.45954134      19.31534204      22.02145773 
Au      14.06705706      19.35313932      12.64016017 
Au      18.70713236      14.23428132      22.60660716 
Ag      15.72936544      14.36848208      11.92530456 
Au      17.27309679      19.40914464      11.63877940 
Au      17.26483592      19.29805447      23.03419432 
Au      18.21827287      16.15913898      11.30302842 
Au      16.29609357      16.04111079      23.27653207 
Au      21.44019171      16.37864223      21.80708721 
Ag      13.10123451      16.47148602      12.76763153 
Au      23.21580544      16.48769064      15.51029005 
Au      11.29709475      16.42297319      19.07373301 
Au      22.42938789      13.72983756      15.99231337 
Au      12.09610211      13.67887738      18.52149480 
Au      14.92915537      22.77440947      18.30225815 
Au      19.59114484      22.80335407      16.52513708 
Ag      17.80248864      12.35232835      12.90807622 
Au      16.66416582      12.23420616      21.50978889 
Au      20.18205803      14.17004169      12.47129521 
Au      14.33307940      14.05545692      22.08842894 
Au      21.82982625      21.08268970      15.88816850 
Au      12.69998953      21.02892944      18.95620229 
Au      13.66542919      17.00833935      22.51799888 
Ag      20.85634187      17.16740249      12.06733441 
Au      22.29778173      19.92053689      19.84385547 
Au      12.25667354      19.95846207      14.86208177 
Ag      20.03836591      21.81366901      20.47864759 
Au      14.52134049      21.84152575      14.25184685 
Au      15.81530440      10.80956079      17.47929712 
Au      18.74934759      10.82637486      16.90043610 
Au      22.12659300      14.11048910      20.03891577 
Au      12.38718167      14.19031843      14.52977545 
Au      17.04417452      21.77681473      21.46269096 
Au      17.47244168      21.86953821      13.27200959 
Au      19.74264376      12.14687905      20.66449053 
Au      14.81828807      12.24544234      13.80628945 
Au      23.27457211      16.83463482      19.42987929 
Au      11.29943895      16.91921429      15.17261298 
Au      20.06148304      20.29314542      12.60674602 
Ag      14.48536123      20.20202761      22.10553194 
Au      20.63094691      23.26617970      13.60524446 
Au      13.87563979      23.22693958      21.20023066 
Au      24.77592595      14.53660311      17.87895966 
Au       9.73057268      14.56203479      16.65756016 
Au      17.21982521      24.94545690      17.37326232 
Au      21.54847031      10.70990290      14.79888310 
Au      12.99937337      10.58928318      19.55700450 
Au      16.26723318       9.70041444      13.70791536 
Au      18.27029836       9.60345298      20.60562386 
Au      10.42858706      18.26740945      21.26068231 
Au      24.13416357      18.38510650      13.41982341 
Au      24.50887727      20.42892648      16.98596658 
Au      10.05267040      20.41504723      17.77297599 
Au      23.76971509      18.54158919      22.13433984 
Au      10.79439043      18.59539549      12.46934819 
S      19.49225158       9.58303112      14.76702799 
S      15.05470907       9.45855569      19.55201787 
Au      14.73885088      18.74280329      24.85759276 
Au      19.80291668      18.91100442       9.75493212 
Au      18.35729054      13.29177396      10.00969758 
Ag      16.14621839      13.12991283      24.36963100 
Au      19.28361358      22.11452730      23.44787062 
Au      15.24994178      22.23008225      11.25696197 
S      18.53386000      24.04281774      12.85926229 
S      15.99313427      23.93829620      21.94147054 
S      24.21685111      12.94619618      19.53339470 
S      10.28728480      13.01419802      14.96014009 
Au      12.70180532      13.54378629      11.56175337 
Au      21.85321511      13.29366260      22.92344261 
S       8.98834113      16.06810516      18.31601736 
S      25.52436594      16.07639661      16.25623772 
S      11.28856365      17.09596349      23.14228157 
S      23.30499621      17.28174072      11.49330620 
S      22.81471140      22.67110835      14.25949247 
S      11.68570384      22.67741365      20.53468015 
S      22.28405017      19.53285515      23.67572705 
S      12.28348872      19.60262239      10.94302866 
S      19.11544043       8.89437268      18.54193196 
S      15.44399373       8.95119777      15.76965708 
S      16.02521000      13.30721792       9.67029430 
S      18.54028643      13.16760156      24.79075285 
S      18.42957053      20.42994796      24.87071267 
S      16.12055818      20.58132134       9.81223709 
S      24.17108844      21.36158551      19.15565626 
S      10.38832651      21.37912640      15.62130360 
S      14.86987009      25.08921189      17.50387806 
S      19.56653351      25.12552936      17.27036355 
S      17.08839386      10.31805222      11.58619572 
S      17.40479047      10.22838016      22.72211338 
S      15.95472769      16.85071775      25.58579576 
S      18.57488252      17.05095115       9.01677362 
S      22.11517536      15.39288953      23.94856439 
S      12.43739831      15.61706633      10.49402246 
S      23.57717140      11.92387390      14.79887535 
S      10.96713476      11.79852852      19.60921417 
S      13.69581731      13.07994715      24.20953352 
S      20.72654879      13.28958285      10.27980123 
S      21.59163230      11.14926595      21.98323070 
S      12.92621666      11.37703708      12.46990996 
S      20.58042586      23.60424946      22.12900054 
S      13.92996619      23.63220931      12.66450722 
S      25.23812927      17.21248712      20.83804984 
S       9.32690262      17.27167865      13.76763870 
S      13.75677644      20.84590956      24.40208057 
S      20.77634455      20.97883549      10.36900738 
S      25.50461190      19.50390149      15.02375173 
S       9.04824702      19.43842886      19.70635890 
C      18.91679770      14.45179693      26.04338459 
C      15.65967849      14.60666102       8.42853939 
C      23.39696927      23.00093406      18.89255157 
C      11.15206237      23.02081104      15.89479118 
C      20.93692283       8.88003890      18.76512529 
C      13.62027374       8.94398589      15.56353786 
C      10.69756219      15.37751280      22.90383116 
C      23.89516052      15.55316337      11.66081996 
C       8.18980090      15.03024216      19.60065951 
C      26.31446484      15.06904768      14.94308521 
C      22.84262044      21.27466521      23.79144765 
C      11.72722993      21.34819839      10.86773120 
C      14.59802711      26.22608920      18.92297119 
C      19.86131205      26.25635586      15.85221561 
C      23.91827117      15.58783285      24.22532409 
C      10.63324851      15.76998181      10.18575935 
C      19.77351734      16.04006017       8.06598973 
C      14.70629982      15.81561152      26.44239139 
C      19.56573604      25.06409505      21.67766398 
C      14.91674424      25.09333423      13.16437991 
C      21.26431712      11.56033074      10.57196731 
C      13.15448189      11.37721796      23.78650877 
C      24.61301490      11.08812987      16.06497654 
C      19.82673038       7.83245386      15.19760532 
C      14.72130806       7.73021961      19.03956440 
C      26.38468423      18.30090018      19.91307646 
C       8.18774639      18.37911328      14.68102112 
C      18.73748496      24.28357528      11.05323457 
C      15.81934891      24.14841232      23.75448422 
C      23.45594276      24.11207410      15.19682674 
C      11.09316408      24.12005859      19.56908159 
C      17.31512966      21.40743888       8.69463724 
C      20.91592176      10.14394479      23.35825674 
C      13.54705025      10.37069086      11.06920473 
C      11.93388239      20.65574778      24.47021692 
C      22.60089623      20.82346191      10.29501432 
C       9.13746127      13.37681087      13.57981709 
C      18.46900860       9.16375299      11.23859871 
C      16.01636936       9.08167688      23.05774936 
C       8.45888963      20.89035104      20.65534587 
C      26.09579621      20.98498333      14.12161495 
C      17.24452342      21.22603539      26.01962341 
H      16.77802586      20.42594203      26.60774087 
H      16.46612953      21.78092685      25.48976325 
H      17.80798287      21.89747477      26.67778776 
C      25.38234297      13.26578298      20.91180335 
H      26.35393226      12.83175806      20.64784449 
H      24.97809536      12.76770184      21.80201253 
H      25.49259262      14.33969388      21.09698622 
C       9.93840064      11.02105278      18.30115850 
H       9.09353746      11.69124238      18.10020431 
H       9.57429763      10.05933164      18.68013008 
H      10.50431328      10.87492767      17.37658959 
H      26.52291368      15.73983860      14.10016848 
H      25.65955844      14.25413229      14.61634828 
H      27.25476705      14.66371919      15.33413529 
H      26.81712706      17.70676692      19.09929544 
H      27.17265198      18.62817235      20.60112107 
H      25.86975408      19.17148742      19.49582770 
H      26.61685885      20.64118211      13.22045883 
H      26.79763038      21.52150997      14.77059641 
H      25.25953354      21.63699356      13.84324707 
H      24.14478565      23.66966935      18.45159286 
H      23.08710750      23.38164479      19.87357618 
H      22.52084466      22.92210228      18.23750557 
H      23.62742551      24.93958990      14.49881585 
H      24.40639212      23.81115795      15.65536687 
H      22.75480657      24.41815479      15.97950729 
H      20.03311745      25.53366920      20.80397712 
H      19.56942009      25.76573622      22.51957856 
H      18.53608715      24.78321611      21.43226912 
H      20.93255424      26.22791865      15.62049864 
H      19.57457709      27.26831300      16.16026483 
H      19.29144226      25.94927999      14.96999988 
H      17.73519192      24.33844472      10.61002853 
H      19.30197836      23.45652491      10.60906912 
H      19.27148305      25.22704728      10.88993165 
H      14.88149801      27.23742122      18.61014514 
H      15.18073933      25.92028028      19.79726019 
H      13.53042438      26.20063398      19.17134468 
H      14.86830137      25.83027630      12.35410139 
H      15.95969434      24.82568764      13.36536722 
H      14.46206506      25.50796759      14.07191785 
H      10.13533917      23.83888318      19.11350691 
H      11.80523812      24.38824532      18.78222263 
H      10.94417254      24.96628403      20.24951951 
H      16.75620395      22.09253212       8.04672649 
H      17.78983855      20.62325109       8.09166301 
H      18.08503988      21.95338130       9.24595921 
H      22.91015054      20.97800194       9.25469145 
H      22.93979097      19.84184143      10.63954824 
H      23.02455642      21.60767917      10.93339865 
H      23.44065441      14.97451986      10.84758812 
H      23.58929015      15.12380547      12.62209034 
H      24.98632155      15.53626277      11.56618688 
H      20.03122022      16.58998510       7.15367958 
H      19.27764928      15.09440693       7.81137218 
H      20.67675584      15.82829380       8.64556566 
H      21.14721528      10.99606158       9.63970753 
H      20.68695944      11.09325525      11.37543565 
H      22.32246078      11.59026110      10.85748225 
H      18.96604549       9.51483766      10.32667054 
H      18.05443206       8.16424264      11.06561234 
H      19.18033942       9.13460055      12.07128437 
H      13.34219878       8.08490965      14.94197485 
H      13.27037963       9.87080410      15.09579051 
H      13.16411463       8.84974891      16.55732960 
H      12.69414212      10.15078119      10.41673802 
H      13.96028017       9.44244811      11.48195896 
H      14.32692595      10.89621283      10.50855530 
H      15.91699002      14.22168490       7.43538690 
H      16.21738642      15.52761702       8.62994695 
H      14.58316299      14.81210639       8.48319360 
H       9.54243806      12.89016412      12.68375082 
H       9.04344117      14.45534458      13.41377948 
H       8.15804985      12.95082083      13.82720153 
H      10.34927527      15.06462754       9.39700715 
H      10.44945450      16.79897663       9.85287032 
H      10.04943731      15.57667261      11.09008314 
H       7.37531241      18.66174945      14.00146510 
H       8.69766883      19.27700476      15.04231289 
H      10.75315228      21.37305479      10.36599470 
H      12.46782341      21.90581096      10.28035162 
H      11.64516205      21.78902056      11.86578203 
H      11.44355661      23.41433913      14.91357555 
H      12.04097431      22.94128740      16.53189376 
H      10.40631326      23.67771830      16.35623801 
H      20.41352785       7.37414513      14.39386130 
H      18.85143352       7.33638582      15.27682751 
H      20.35648681       7.73516781      16.14957608 
H      24.98124266      10.14786422      15.63903938 
H      24.04970532      10.89449440      16.98237217 
H      25.45487555      11.75221512      16.29675712 
H      24.09483477      16.62687457      24.53008779 
H      24.49218298      15.37194645      23.31998589 
H      24.21267607      14.90327857      25.02917634 
H      19.97696026      14.71797775      25.95356939 
H      18.72492747      14.01654318      27.03141040 
H      18.29824163      15.34536944      25.90523068 
H      15.18761319      14.86808925      26.71693058 
H      13.84355233      15.61145935      25.80154098 
H      14.38597876      16.34590415      27.34648049 
H      12.10141499      11.42101335      23.48510495 
H      13.25544103      10.74692114      24.67768862 
H      13.74442112      10.96444388      22.96254179 
H      16.44071040       8.08960801      23.25160427 
H      15.32978714       9.03751876      22.20514751 
H      15.49648123       9.44012150      23.95356374 
H      20.47440444       9.23801482      22.92562628 
H      20.15153975      10.69229218      23.91880757 
H      21.75105590       9.88099977      24.01791661 
H      15.69584560       7.23175296      18.96546343 
H      14.21821644       7.67457817      18.06993568 
H      22.10233663      21.82164730      24.38886319 
H      22.92900007      21.73683638      22.80341041 
H      23.81571865      21.28497674      24.29563839 
H      11.49785848      21.53375809      23.97896089 
H      11.62090119      20.62220286      25.51971135 
H      11.59967639      19.74898763      23.95660870 
H      15.30500547      25.09836144      23.94152285 
H      16.82928169      24.17783234      24.18271995 
H      15.24613312      23.32337941      24.19117181 
H       7.75018809      21.44102701      20.02582279 
H       9.29360796      21.53941536      20.94520499 
H       7.24532173      14.64600440      19.19848563 
H       7.98857233      15.67739493      20.46346248 
H       8.83664976      14.19921769      19.90131448 
H       9.61163249      15.36372298      23.04998214 
H      11.19186559      14.75250690      23.65763055 
H      10.95446699      15.00977414      21.90356455 
H      21.40032293       8.81167746      17.77265648 
H      21.20949447       8.00413557      19.36517030 
H      21.28274041       9.79370598      19.26074578 
H      14.11088121       7.24137694      19.80681091 
H       7.94510173      20.51874535      21.54955260 
H       7.78807879      17.81398135      15.53127302 
