322
Properties=species:S:1:pos:R:3 i=223 optimized=T E=-4516.7406896796 pbc="F F F" jobid=102_44-Ag-90_2-000009-PBE
Ag      16.84577302      17.02663735      15.87081333 
Ag      17.66816764      17.00045553      18.66178638 
Ag      18.61600522      14.94356813      16.86737652 
Ag      15.88755345      14.94762373      17.64315229 
Ag      19.51707323      17.76442325      16.57614935 
Ag      15.00238732      17.76548354      17.95267727 
Ag      17.26343245      19.50820293      17.27786393 
Ag      17.83107093      15.05026015      13.97526780 
Ag      16.68399233      15.00244921      20.54752313 
Au      18.18007489      19.50452362      20.13495195 
Ag      16.32578295      19.55788983      14.42968807 
Ag      19.45902092      14.95051260      19.77598160 
Ag      15.05080347      15.00242837      14.74951182 
Ag      18.64662549      17.87042140      13.69435901 
Ag      15.87509319      17.83146997      20.84931354 
Ag      20.40498775      17.74125614      19.45007898 
Ag      14.11296596      17.77082734      15.12198053 
Au      21.32379954      15.68769591      17.62914670 
Ag      13.16231654      15.73053571      16.92250054 
Ag      13.98550131      15.74734462      19.77571427 
Ag      20.54574995      15.76092471      14.72205479 
Ag      15.44928750      20.32513154      19.41039896 
Ag      19.08105696      20.32892412      15.16260100 
Ag      20.00729073      20.30865851      17.95967507 
Ag      14.52608089      20.34272002      16.61549314 
Ag      17.65717993      12.77793326      18.75538763 
Ag      16.83228202      12.80571265      15.74316504 
Ag      15.98380463      17.10459196      12.99231769 
Ag      18.53408456      17.02891062      21.54414386 
Ag      19.62217458      12.99967802      15.07382055 
Ag      14.87336369      12.98311046      19.41351479 
Ag      13.16483383      18.51257290      20.01774337 
Ag      21.37831251      18.50689808      14.51956371 
Ag      20.39987480      12.93852348      17.87646179 
Ag      14.07460883      12.98281790      16.62517665 
Ag      22.17197242      18.56353391      17.26180193 
Ag      12.35217417      18.58778581      17.29952314 
Ag      17.71734445      22.02441581      18.63177922 
Ag      16.81971738      22.02308708      15.94853283 
Ag      20.42383687      19.24402427      21.96341551 
Au      14.06737513      19.27340173      12.66391179 
Ag      18.75020018      14.34970516      22.50735511 
Ag      15.74788163      14.42162238      12.01522479 
Ag      17.26251059      19.33088155      11.63420287 
Ag      17.26379745      19.24670080      22.92888957 
Ag      18.18047833      16.20240478      11.32795137 
Ag      16.32162779      16.15807979      23.21974325 
Ag      21.30556432      16.25458200      21.73314951 
Ag      13.19323219      16.32475965      12.81736769 
Au      23.17696350      16.47905921      15.58293014 
Ag      11.33331265      16.49830933      18.98414643 
Ag      22.35457797      13.71075114      15.86722071 
Ag      12.15468749      13.74197436      18.69412046 
Ag      14.97300469      22.79795251      18.06856227 
Ag      19.57587409      22.78528992      16.52259633 
Ag      17.71094786      12.40448821      12.97844020 
Ag      16.77217273      12.34624250      21.51553492 
Ag      20.05141217      14.20470593      12.44764530 
Ag      14.45048721      14.15780699      22.04641336 
Ag      21.78237944      21.05491657      15.80512301 
Ag      12.75901888      21.07645882      18.79664775 
Ag      13.65668458      17.03864842      22.39264779 
Ag      20.85293092      17.10681144      12.08556641 
Ag      22.26628277      19.90273752      19.77334731 
Ag      12.26270573      19.95252820      14.79624698 
Au      19.95856371      21.70366705      20.39417670 
Ag      14.57443158      21.77625765      14.18136588 
Au      15.74812830      10.88332204      17.56730026 
Au      18.71645494      10.87475971      16.89386440 
Ag      22.13578111      14.08816209      19.91130691 
Ag      12.37252804      14.17512854      14.60703512 
Ag      17.03036394      21.74109804      21.44541411 
Ag      17.51864766      21.79058824      13.15101018 
Ag      19.73625443      12.23139527      20.65886156 
Ag      14.74432700      12.29424993      13.84225058 
Ag      23.14348188      16.86682931      19.41673144 
Ag      11.36177007      16.93785826      15.12127387 
Ag      20.00821201      20.13699357      12.55331172 
Ag      14.51238366      20.09703568      22.03093853 
Ag      20.52524432      22.97404782      13.66075882 
Ag      14.04527678      22.94840679      20.95858303 
Ag      24.56348827      14.56023253      17.85480601 
Ag       9.99389253      14.63919263      16.70542719 
Ag      17.28326236      24.76017612      17.31605557 
Ag      21.54456740      10.84538829      14.83315046 
Ag      12.90024139      10.87316283      19.68497359 
Ag      16.42601046       9.86405482      13.82900555 
Ag      18.04395211       9.81005569      20.62288284 
Ag      10.49538507      18.24349915      21.25254107 
Ag      24.06946693      18.21298519      13.35410857 
Ag      24.46332943      20.35654133      16.87286459 
Ag      10.08128156      20.38235507      17.73774678 
Ag      23.66055228      18.33728039      21.98521606 
Ag      10.84744271      18.44383296      12.54202510 
S      19.47502560       9.63419685      14.77448757 
S      14.95734488       9.64001441      19.67091306 
Ag      14.71457927      18.81060747      24.70221046 
Au      19.79250733      18.90346135       9.78377487 
Ag      18.22357286      13.29612101      10.14572219 
Ag      16.25536653      13.21934041      24.34947986 
Au      19.30349969      21.95066095      23.44351138 
Au      15.24853460      22.15170290      11.23151848 
S      18.51190886      24.05446532      12.87453186 
S      16.06698248      23.99635867      21.78533300 
S      24.16258377      12.75965752      19.41559310 
S      10.37244456      12.82644082      15.14914218 
Ag      12.75650940      13.42888361      11.72334920 
Ag      21.73665810      13.32923587      22.78332245 
S       8.98428752      16.19088007      18.26131469 
S      25.51240693      16.10252281      16.24089464 
S      11.31468470      17.11635484      23.22658382 
S      23.24496588      17.08728063      11.37834698 
S      22.85792563      22.68689516      14.25499186 
S      11.70488595      22.72066170      20.34891954 
S      22.24858560      19.30533991      23.66283446 
S      12.31504143      19.44929618      10.91862472 
S      18.88852682       8.95287613      18.56119248 
S      15.56758468       8.98529845      15.87729947 
S      15.83961853      13.41875042       9.73813143 
S      18.64036581      13.30120476      24.76243868 
S      18.36907915      20.35313961      24.89775631 
S      16.13486662      20.55386968       9.74669811 
S      24.23867104      21.28126474      19.10002753 
S      10.32102580      21.33293650      15.52316475 
S      14.89802873      25.16930840      17.36100840 
S      19.67356619      25.13615389      17.28942714 
S      17.06886647      10.43305326      11.56638973 
S      17.39647170      10.34371572      22.89060797 
S      15.97218171      16.96625316      25.57636885 
S      18.55522481      17.06825485       8.98146752 
S      22.11870985      15.40220123      23.92996988 
S      12.37995357      15.51501335      10.59776426 
S      23.64999233      11.98059319      14.64793183 
S      10.81256340      12.03546471      19.91340959 
S      13.82127308      13.24402291      24.24877612 
S      20.65679404      13.30833758      10.23002448 
S      21.63325902      11.11271164      21.85270020 
S      12.83701098      11.20526552      12.63779231 
S      20.64753778      23.35930310      22.06292960 
S      13.92058802      23.57960427      12.58981257 
S      25.24005128      17.02336576      20.70890717 
S       9.27008732      17.11869271      13.80420306 
S      13.72703553      20.96973117      24.21805951 
S      20.81673026      20.97102162      10.34053640 
S      25.49784220      19.42808004      14.88770867 
S       9.05460733      19.43729219      19.72112988 
C      18.99036074      14.60935385      26.00277932 
C      15.49478634      14.75322171       8.52414519 
C      23.54061552      22.97050806      18.91897453 
C      11.02863885      23.01568368      15.72734202 
C      20.69143536       8.72457729      18.81536816 
C      13.76485755       8.76574751      15.61368611 
C      10.68479701      15.39431865      23.09945151 
C      23.79764402      15.34678174      11.58151055 
C       8.15411944      15.15878259      19.53489484 
C      26.27640006      15.06685241      14.93282373 
C      22.86482333      21.02443035      23.86863898 
C      11.74277887      21.18837990      10.78232792 
C      14.70731518      26.27416405      18.82175643 
C      19.89244972      26.27372342      15.85810076 
C      23.94016726      15.53400065      24.13825316 
C      10.55728817      15.64499842      10.39724720 
C      19.77197967      16.06056853       8.04719239 
C      14.72631108      15.94472187      26.46059441 
C      19.72078747      24.89284638      21.67552552 
C      14.89229309      25.06720779      13.04686446 
C      21.26431721      11.61010134      10.58228327 
C      13.21189827      11.55132866      23.87450106 
C      24.75724158      11.16628099      15.87308261 
C      19.84986907       7.90021231      15.26564009 
C      14.54343682       7.92007322      19.16187527 
C      26.36923394      18.16250265      19.81055119 
C       8.13600105      18.24255509      14.71658655 
C      18.79137795      24.36496460      11.08487582 
C      15.77041558      24.26005598      23.57936352 
C      23.30326599      24.20791788      15.18674355 
C      11.28895884      24.26234639      19.43830494 
C      17.32927039      21.42576045       8.66175913 
C      20.98231293      10.11196280      23.25153410 
C      13.47500170      10.20458056      11.23315256 
C      11.89590990      20.81073632      24.24778679 
C      22.63632515      20.73464549      10.28492143 
C       9.13683737      13.07838514      13.81225714 
C      18.47006405       9.30029383      11.21270130 
C      15.98622645       9.21421389      23.21743901 
C       8.51850399      20.92034325      20.66155451 
C      26.05306537      20.91360840      13.96442155 
C      17.16476833      21.23294509      25.96615697 
H      16.67851645      20.47111070      26.58892948 
H      16.40382530      21.76342777      25.38701254 
H      17.71170097      21.93618754      26.60388419 
C      25.36565105      13.01989910      20.77973010 
H      26.32244330      12.57089198      20.48901461 
H      24.97747074      12.51287249      21.67166810 
H      25.51073733      14.08597249      20.98709362 
C       9.67702170      11.25138070      18.69466825 
H       8.77630090      11.87376999      18.62862481 
H       9.40478087      10.25515046      19.06013456 
H      10.12555766      11.17835664      17.69916054 
H      26.51752576      15.71837958      14.08358631 
H      25.60120223      14.26693319      14.60726871 
H      27.20026643      14.63475984      15.33485593 
H      26.63226025      17.71070326      18.84725547 
H      27.27101417      18.28525973      20.42150220 
H      25.91089518      19.14256648      19.64546291 
H      26.50309457      20.58627104      13.02013641 
H      26.81158387      21.43036604      14.56425281 
H      25.21355359      21.59091530      13.76292529 
H      24.29200816      23.61511568      18.45003861 
H      23.30475220      23.34843771      19.92055170 
H      22.62405282      22.96480995      18.31687790 
H      23.34339372      25.05253140      14.48962312 
H      24.29449737      24.05751203      15.63129474 
H      22.57863645      24.41764791      15.98123232 
H      20.13772311      25.31158301      20.75179592 
H      19.87397874      25.59335043      22.50498718 
H      18.65038706      24.69471131      21.54422134 
H      20.96831091      26.39220169      15.68273890 
H      19.45792021      27.24641225      16.11327947 
H      19.42068525      25.87980697      14.95113450 
H      17.81483417      24.43892665      10.59129591 
H      19.37510800      23.55812558      10.62794516 
H      19.33187027      25.31234043      10.97618674 
H      15.15418717      27.24622110      18.58627032 
H      15.18081344      25.85199992      19.71502392 
H      13.63497377      26.40433962      19.00973521 
H      14.78678739      25.80543701      12.24364496 
H      15.95173030      24.82708605      13.19433761 
H      14.47293138      25.46839175      13.97723926 
H      10.29430641      24.13830140      18.99343435 
H      12.01693358      24.46848341      18.64582265 
H      11.26656398      25.09782864      20.14716997 
H      16.77965478      22.14094621       8.03972907 
H      17.79877809      20.66399464       8.02692500 
H      18.10618987      21.94258605       9.23189183 
H      22.96848612      20.84270436       9.24624068 
H      22.93064985      19.74986937      10.66137594 
H      23.08872035      21.51730118      10.90535508 
H      23.26899463      14.73560756      10.84019583 
H      23.57189764      14.96916523      12.58550170 
H      24.87755430      15.30018624      11.40188084 
H      20.07562619      16.62096567       7.15621348 
H      19.26867134      15.13230356       7.74847534 
H      20.64854888      15.81309308       8.65346189 
H      21.14714511      10.99520732       9.68277506 
H      20.72624434      11.15106506      11.41745235 
H      22.32783923      11.68139686      10.83852689 
H      18.97076153       9.64791367      10.30210259 
H      18.06353177       8.29692765      11.04164116 
H      19.18071180       9.27286327      12.04615875 
H      13.61627726       7.86655263      15.00390007 
H      13.32025775       9.62766163      15.10273807 
H      13.28232621       8.62619127      16.58818862 
H      12.62581449       9.95216475      10.58785882 
H      13.92194306       9.28770640      11.63527696 
H      14.23281200      10.74420602      10.65574973 
H      15.67216233      14.34846954       7.52107369 
H      16.13552467      15.62705292       8.68577378 
H      14.44238612      15.04414891       8.62695007 
H       9.50361714      12.56533154      12.91480171 
H       8.98853908      14.14347025      13.60104598 
H       8.18652400      12.63276676      14.12821804 
H      10.24095119      14.92783047       9.63153723 
H      10.32968844      16.66488662      10.06141555 
H      10.02265238      15.44706767      11.33091212 
H       7.22956028      18.36331094      14.11201337 
H       8.58801541      19.22449780      14.88795139 
H      10.77915487      21.18715579      10.25967868 
H      12.48416860      21.74431667      10.19460616 
H      11.62905629      21.66335794      11.76191653 
H      11.28869429      23.39869968      14.73350056 
H      11.93139547      23.00012091      16.35002204 
H      10.27200956      23.66239319      16.18500718 
H      20.90994557       7.76858984      15.50054516 
H      19.58249580       7.25381187      14.42127026 
H      19.23912249       7.64217929      16.14026889 
H      25.04197876      10.18213217      15.48489039 
H      24.28394481      11.06152310      16.85392846 
H      25.65368064      11.78884138      15.98203381 
H      24.16253807      16.55220086      24.48215471 
H      24.47785042      15.34383581      23.20478041 
H      24.25482857      14.81139770      24.89950538 
H      20.03665419      14.91786996      25.89010834 
H      18.83657197      14.17566865      26.99766724 
H      18.33191231      15.47632650      25.87470872 
H      15.21033910      15.01037417      26.77142361 
H      13.86809340      15.70442192      25.82568179 
H      14.39082368      16.49699102      27.34508182 
H      12.15218954      11.62773174      23.60439978 
H      13.31579538      10.92922040      24.77074963 
H      13.76005180      11.09710138      23.04318922 
H      16.38421669       8.20410978      23.36756060 
H      15.27679202       9.21062937      22.38250133 
H      15.48663564       9.54633308      24.13446201 
H      20.52236319       9.20390495      22.84427598 
H      20.23253839      10.65879187      23.83283844 
H      21.82843920       9.84415510      23.89463637 
H      14.72860279       7.26613974      20.02230888 
H      15.19871032       7.63582034      18.32877814 
H      22.15006814      21.56456897      24.50196991 
H      22.96076738      21.54584201      22.91115835 
H      23.84105720      20.98442660      24.36479740 
H      11.47479847      21.51892665      23.52487573 
H      11.55270951      21.06498050      25.25735794 
H      11.57034582      19.79463774      24.00273073 
H      15.25189081      25.21741550      23.70668757 
H      16.74003221      24.29620664      24.09018341 
H      15.15802327      23.45476646      24.00145986 
H       7.74866553      21.43704294      20.07619724 
H       9.36078348      21.59868487      20.84800657 
H       7.25060441      14.71905553      19.09738815 
H       7.87129284      15.81623975      20.36641175 
H       8.81304685      14.36382563      19.90294018 
H       9.60965465      15.39984871      23.31033656 
H      11.21031867      14.78727275      23.84629003 
H      10.86651846      14.97099167      22.10504549 
H      21.16959332       8.59903065      17.83656940 
H      20.84062297       7.81609401      19.41103363 
H      21.13985978       9.57766740      19.33774169 
H      13.49700416       7.82901327      18.85701985 
H       8.08572401      20.59082271      21.61307456 
H       7.88286959      17.77900946      15.67716103 
