322
Properties=species:S:1:pos:R:3 i=243 optimized=T E=-4478.9961189498 pbc="F F F" jobid=102_44-Ag-80_4-000003-PBE
Ag      16.83889344      16.96572170      15.91932358 
Ag      17.70225686      16.91867537      18.73446449 
Ag      18.62207653      14.89127244      16.88415605 
Au      15.89841364      14.87868896      17.70379178 
Au      19.51252696      17.67658437      16.64375574 
Ag      15.02621291      17.70499137      18.03590980 
Ag      17.28724373      19.43697593      17.34967526 
Au      17.82831580      14.97054988      13.94962713 
Ag      16.69699654      14.90855698      20.59086309 
Ag      18.23945059      19.43532572      20.20035183 
Ag      16.36098724      19.51119123      14.49813501 
Ag      19.49717393      14.89176178      19.86243048 
Ag      15.05225810      14.95728829      14.80110290 
Ag      18.67747153      17.79270976      13.75325063 
Ag      15.91943186      17.76173820      20.89739148 
Ag      20.43190565      17.64502800      19.50451296 
Ag      14.13491320      17.76735593      15.15738459 
Ag      21.38300317      15.65016546      17.62083039 
Ag      13.17491037      15.70168199      16.96508414 
Ag      13.96999370      15.66539932      19.82801320 
Ag      20.54905821      15.68862129      14.76275088 
Au      15.47386661      20.23962068      19.49199102 
Au      19.11136356      20.27782666      15.22332738 
Ag      20.05241804      20.25708547      18.04197602 
Ag      14.55937358      20.28789979      16.68744402 
Ag      17.65917893      12.71568956      18.78093472 
Ag      16.81883409      12.76648858      15.76378743 
Ag      15.99826527      17.05802460      13.05381843 
Ag      18.58237284      16.94129280      21.60641765 
Ag      19.61069921      12.91448261      15.09538357 
Ag      14.83968716      12.90586919      19.45282538 
Ag      13.16130731      18.43154670      20.10721769 
Ag      21.39795733      18.44406238      14.58279789 
Au      20.39807408      12.92181966      17.90227434 
Ag      14.07309333      12.92412059      16.66858950 
Au      22.20476304      18.48079761      17.30899954 
Ag      12.38473192      18.53583901      17.36422535 
Ag      17.78264102      21.92042148      18.71433111 
Ag      16.84054786      21.98303143      16.04287158 
Ag      20.46936294      19.14329008      22.01883403 
Ag      14.12610696      19.29845437      12.67521844 
Ag      18.71065230      14.19818351      22.57117375 
Ag      15.68599252      14.36321190      12.06756870 
Ag      17.28396305      19.27790110      11.72105771 
Ag      17.35489328      19.16841882      22.98613949 
Ag      18.23010499      16.18395132      11.34009065 
Au      16.36386490      16.06051705      23.22413653 
Ag      21.39729993      16.21432303      21.76254295 
Ag      13.20972886      16.32608600      12.86822284 
Ag      23.23602059      16.37533633      15.57458464 
Ag      11.32549216      16.46021842      19.02837039 
Au      22.31998578      13.63767010      15.84422611 
Ag      12.11008104      13.70135361      18.68248368 
Ag      15.04541679      22.72676003      18.22523357 
Ag      19.61017970      22.72071551      16.56231551 
Ag      17.66376026      12.32080640      12.98303097 
Ag      16.79153770      12.19235876      21.49669480 
Ag      20.07160186      14.12474692      12.48391713 
Ag      14.48662549      14.03800043      22.09207143 
Au      21.84048691      20.99342458      15.83999078 
Ag      12.79236996      21.02547259      18.89157560 
Ag      13.73090092      16.92435872      22.46863243 
Ag      20.90457079      17.05438939      12.17080645 
Ag      22.28092229      19.80157062      19.85764714 
Ag      12.29241808      19.93253885      14.88867276 
Ag      20.00527582      21.63995338      20.50134615 
Ag      14.58963904      21.73744501      14.27465267 
Ag      15.76242583      10.77076318      17.58932871 
Au      18.68834101      10.81111508      16.90147224 
Au      22.18901351      14.12202954      19.91493150 
Ag      12.38196269      14.15530253      14.64833627 
Ag      17.04219007      21.66093769      21.50205289 
Au      17.56072174      21.74676488      13.25973387 
Au      19.75137844      12.17030599      20.67766520 
Ag      14.66903394      12.23136373      13.88782281 
Ag      23.22308600      16.83582378      19.44193005 
Ag      11.39139481      16.92858608      15.16569914 
Ag      20.03498534      20.10521515      12.60050839 
Ag      14.56479034      20.02684672      22.11676010 
Ag      20.49796730      23.00633657      13.63439118 
Ag      14.06926891      22.90675855      21.08471303 
Ag      24.57558112      14.51179472      17.82291001 
Ag       9.97874972      14.61349442      16.67755444 
Ag      17.33332488      24.68267951      17.40730536 
Ag      21.56934965      10.74690406      14.83482470 
Ag      12.78745532      10.83880421      19.61492980 
Au      16.11835248       9.70814977      13.78733446 
Au      18.18825828       9.62736420      20.70277309 
Au      10.43997751      18.21490890      21.27359408 
Ag      24.08433396      18.24286681      13.45853504 
Au      24.50346559      20.33287006      17.01805282 
Ag      10.14974944      20.37382151      17.76586694 
Ag      23.69897361      18.33029938      22.06868600 
Ag      10.85315602      18.44730238      12.64365719 
S      19.46700846       9.61109106      14.77933604 
S      14.85567750       9.65387102      19.72356630 
Ag      14.78263691      18.67787207      24.78115634 
Ag      19.86062737      18.88799710       9.91020697 
Au      18.30080910      13.34297128      10.08630070 
Ag      16.25511552      13.07065798      24.36122360 
Ag      19.32136435      21.85634807      23.42776748 
Au      15.26499487      21.98129445      11.27805902 
S      18.44101059      24.00366840      12.82852534 
S      16.10342209      23.91835495      21.93616226 
S      24.19373019      12.79408801      19.50719731 
S      10.35905496      12.81291672      15.11130866 
Ag      12.72225278      13.49113524      11.72019063 
Ag      21.73255770      13.35290800      22.83777852 
S       8.99109534      16.16726460      18.23230907 
S      25.60574459      15.99042202      16.20680184 
S      11.32717408      17.04926886      23.13010065 
S      23.29449628      17.14063640      11.45086096 
S      22.79942906      22.65743993      14.28704560 
S      11.73511818      22.66156658      20.44988890 
S      22.28067300      19.31852488      23.73494946 
S      12.27301577      19.45560089      11.00098919 
S      18.93185385       8.90392637      18.59940158 
S      15.32151785       8.93726041      15.84657814 
S      15.95644518      13.38263441       9.77760200 
S      18.63393789      13.11006504      24.81486921 
S      18.43461047      20.23509909      24.96345943 
S      16.13839411      20.37780260       9.77804543 
S      24.20015446      21.27093922      19.18032381 
S      10.34357408      21.35517355      15.55935311 
S      14.94862221      25.07585336      17.47777945 
S      19.72028202      25.06130025      17.33493010 
S      16.90156799      10.33208346      11.65237572 
S      17.42031536      10.15642236      22.88022056 
S      16.07053992      16.81585923      25.58194572 
S      18.52264585      17.11412747       9.02457565 
S      22.05514796      15.41939123      24.03028408 
S      12.48180364      15.59466546      10.59170042 
S      23.67330203      11.91551524      14.71579724 
S      10.70350388      12.00937958      19.84642630 
S      13.81582260      13.06268676      24.25475222 
S      20.67637470      13.27893344      10.23491332 
S      21.64012843      11.12935034      21.89823613 
S      12.69843548      11.27540520      12.63034541 
S      20.71729795      23.35626119      22.13040490 
S      13.91064460      23.43935677      12.58766874 
S      25.28625761      17.03124853      20.79846508 
S       9.27447351      17.10295746      13.88369781 
S      13.78361800      20.82971827      24.32250640 
S      20.89236320      21.00651059      10.45671884 
S      25.49085374      19.43340240      15.04723909 
S       9.08463543      19.39786239      19.73154036 
C      18.96782170      14.39329819      26.08396221 
C      15.60167692      14.68567524       8.53599016 
C      23.44761555      22.92729152      18.94860078 
C      11.06311371      23.03260707      15.76723216 
C      20.75339831       8.79248927      18.79652505 
C      13.49756386       8.83411086      15.65192236 
C      10.70027817      15.33255846      22.96106910 
C      23.88410959      15.40552462      11.58731276 
C       8.13404761      15.15557370      19.50347574 
C      26.33781555      14.88103890      14.93829502 
C      22.89128120      21.04276665      23.91126899 
C      11.65954958      21.18002374      10.84092786 
C      14.76701365      26.19616723      18.92891644 
C      19.90345711      26.19742026      15.89625805 
C      23.86847058      15.56289847      24.29602496 
C      10.67397805      15.78628256      10.31420016 
C      19.68307412      16.08358649       8.03965759 
C      14.86701749      15.74331712      26.46053415 
C      19.77477608      24.87355756      21.69988034 
C      14.85317346      24.96106937      12.98548453 
C      21.15089025      11.52234744      10.48431180 
C      13.23913679      11.36766172      23.84067975 
C      24.72837824      11.13715001      16.00575599 
C      19.77415733       7.84821794      15.20244409 
C      14.49613778       7.89355177      19.31919338 
C      26.43752267      18.16660114      19.92504769 
C       8.14813714      18.22200999      14.81156245 
C      18.68223235      24.21959285      11.02257523 
C      15.79526325      24.15837334      23.73169483 
C      23.30248703      24.12620032      15.26587794 
C      11.32570535      24.19837979      19.52809892 
C      17.34246901      21.24707065       8.70114092 
C      20.98818783      10.10744972      23.27490343 
C      13.30443628      10.23375550      11.24124876 
C      11.95247800      20.67622377      24.35055376 
C      22.71937305      20.80672808      10.43183205 
C       9.15362389      13.10869436      13.75637212 
C      18.27616661       9.17307112      11.29291352 
C      16.02978260       8.99827140      23.17323205 
C       8.53500719      20.87306728      20.67305067 
C      26.03248121      20.93280351      14.14206136 
C      17.21754777      21.09831299      26.03530800 
H      16.72623573      20.33953591      26.65753769 
H      16.45783828      21.63327864      25.45872481 
H      17.75886603      21.80181935      26.67788688 
C      25.39341494      13.14026339      20.85004775 
H      26.34938372      12.67880939      20.57423587 
H      25.01534751      12.68064215      21.77160021 
H      25.53489803      14.21757723      20.99380525 
C       9.56857049      11.26722358      18.60218409 
H       8.68636453      11.91410896      18.52267099 
H       9.26338395      10.27672041      18.95716378 
H      10.03288435      11.18657465      17.61456174 
H      26.63292105      15.49722043      14.08007024 
H      25.62629481      14.11434342      14.60959749 
H      27.22874486      14.40252695      15.36078703 
H      26.78297241      17.66991729      19.01109127 
H      27.28823662      18.36113909      20.58808917 
H      25.95710335      19.11406463      19.66293795 
H      26.50392940      20.60748679      13.20714547 
H      26.77035653      21.46183328      14.75615247 
H      25.18231835      21.59114309      13.92248519 
H      24.19923565      23.60117753      18.52309740 
H      23.13794312      23.28958297      19.93674887 
H      22.57039466      22.87812285      18.29277571 
H      23.43196744      24.97185363      14.58040755 
H      24.25777709      23.89999970      15.75483371 
H      22.55318655      24.37335287      16.02608317 
H      20.14791065      25.25603675      20.74276584 
H      19.95417818      25.61481055      22.48727227 
H      18.69955581      24.67454383      21.62073924 
H      20.97200379      26.28983682      15.66878272 
H      19.50644633      27.17963874      16.17549101 
H      19.37905901      25.82230010      15.01112768 
H      17.69902570      24.20201162      10.53668879 
H      19.31965047      23.42901843      10.61070972 
H      19.15776700      25.19448162      10.86080653 
H      15.19639974      27.17113468      18.67348081 
H      15.26041436      25.79203598      19.81946384 
H      13.69610734      26.31376152      19.13265903 
H      14.74357256      25.66204999      12.15003214 
H      15.91499432      24.74597805      13.15313971 
H      14.41843619      25.39634929      13.89308670 
H      10.33730308      24.07001795      19.07068743 
H      12.06300582      24.40419255      18.74422492 
H      11.29149112      25.03618592      20.23377382 
H      16.80415976      21.98099150       8.09112505 
H      17.79275232      20.48579575       8.05125268 
H      18.13093022      21.74202930       9.27508660 
H      23.07438776      21.09513785       9.43556927 
H      23.02016217      19.77414606      10.63568357 
H      23.15255447      21.47425783      11.18552756 
H      23.40097840      14.82215508      10.79466581 
H      23.62765622      14.96940811      12.56005365 
H      24.97078696      15.39107417      11.44846864 
H      19.94776659      16.63617775       7.13126297 
H      19.16699184      15.15285078       7.77263633 
H      20.58888551      15.83554062       8.60094578 
H      20.95927913      10.96345365       9.56149571 
H      20.60422022      11.07055340      11.31791225 
H      22.22469066      11.50617176      10.70626421 
H      18.76953989       9.52587615      10.37972222 
H      17.85651944       8.17581710      11.11942574 
H      18.99052260       9.14122220      12.12307646 
H      13.25492675       7.93420078      15.07526371 
H      13.09584035       9.71626392      15.13984834 
H      13.05210501       8.75982469      16.65198465 
H      12.45556902      10.02544384      10.58009719 
H      13.69227448       9.29747879      11.65992806 
H      14.10409707      10.72422143      10.67701650 
H      15.82396075      14.28001363       7.54252855 
H      16.19891762      15.58752288       8.71335339 
H      14.53436765      14.92767974       8.61312978 
H       9.53303812      12.61017363      12.85590612 
H       9.02097188      14.17977472      13.56604508 
H       8.19247599      12.66754111      14.04466556 
H      10.36788014      15.09103679       9.52454566 
H      10.49825699      16.81878890       9.98662208 
H      10.09423221      15.59221377      11.22163157 
H       7.23888046      18.34982181      14.21271654 
H       8.60344734      19.20175630      14.98745037 
H      10.68347683      21.15376360      10.34367813 
H      12.37570974      21.73645139      10.22388781 
H      11.56404414      21.67590186      11.81189284 
H      11.31872219      23.41634942      14.77242776 
H      11.97003558      23.00856810      16.38299524 
H      10.31450328      23.68381457      16.23167753 
H      20.17289338       7.34342893      14.31491272 
H      18.81092605       7.40412250      15.48065003 
H      20.47606564       7.73513413      16.03326550 
H      25.09407024      10.18103284      15.61381835 
H      24.18186100      10.97556142      16.93933196 
H      25.57737177      11.80343460      16.20260649 
H      24.07354947      16.58212733      24.64773199 
H      24.43610243      15.37693794      23.37937317 
H      24.16483469      14.84168666      25.06601918 
H      20.02014977      14.69082634      25.99976895 
H      18.78376713      13.95008238      27.06937541 
H      18.32763932      15.27286273      25.94955435 
H      15.37521441      14.80892667      26.73142865 
H      13.99604262      15.50759661      25.84172022 
H      14.54717877      16.26559786      27.36940531 
H      12.18139476      11.42984999      23.55930486 
H      13.34360845      10.73077170      24.72639823 
H      13.80576264      10.93980228      23.00761525 
H      16.43573730       7.98689279      23.28766809 
H      15.31518908       9.02490012      22.34287165 
H      15.53907340       9.30164436      24.10550960 
H      20.51283658       9.21350320      22.85414984 
H      20.25590769      10.65474789      23.87832541 
H      21.84273358       9.82078285      23.89962412 
H      15.39127732       7.32058526      19.59135632 
H      14.30548582       7.75832049      18.24975245 
H      22.19858495      21.58106187      24.57052176 
H      22.94753093      21.56346236      22.95035065 
H      23.88482381      21.01328090      24.37234887 
H      11.53455929      21.43500396      23.67890932 
H      11.61406057      20.86209904      25.37637970 
H      11.61889893      19.68355170      24.03309032 
H      15.23946543      25.09378225      23.86504173 
H      16.76179746      24.23253029      24.24454981 
H      15.21513507      23.32739110      24.14898723 
H       7.79762767      21.40108891      20.05622123 
H       9.37872425      21.53731673      20.89811303 
H       7.21205606      14.75200948      19.06973717 
H       7.88347241      15.81595743      20.34286156 
H       8.76744299      14.33435578      19.85914761 
H       9.61925027      15.33254890      23.13766489 
H      11.20806706      14.72493721      23.72031884 
H      10.92032489      14.92223601      21.96866164 
H      21.20313319       8.70306554      17.80009152 
H      20.98413314       7.89812186      19.38700615 
H      21.15477295       9.68008834      19.29845927 
H      13.64122291       7.54003320      19.90439587 
H       8.05771312      20.53692730      21.60034187 
H       7.89961591      17.75145707      15.76997169 
