322
Properties=species:S:1:pos:R:3 i=302 optimized=T E=-4437.4791159029 pbc="F F F" jobid=102_44-Ag-69_6-000006-PBE
Au      16.87739104      17.03962798      15.90408395 
Ag      17.69479218      16.99055142      18.70270335 
Ag      18.66602804      14.94822966      16.88982165 
Ag      15.90785314      14.96080025      17.63771750 
Ag      19.55394568      17.78138275      16.64835996 
Ag      15.01198440      17.76946495      17.99730014 
Ag      17.29150239      19.50771018      17.32466384 
Au      17.85545434      15.07438786      13.94996378 
Ag      16.68589296      14.99466837      20.55745366 
Ag      18.20735162      19.49602674      20.19163433 
Ag      16.37759035      19.57257633      14.46799858 
Ag      19.45446709      14.93194114      19.80132060 
Ag      15.07615250      15.04105133      14.74459642 
Ag      18.70254600      17.91121445      13.75442728 
Au      15.86808259      17.82707379      20.88056589 
Ag      20.40544166      17.71210290      19.52418033 
Ag      14.15583173      17.82354222      15.15069328 
Ag      21.37492009      15.69310153      17.66154272 
Ag      13.18049131      15.73625216      16.88103706 
Ag      13.95694501      15.74040113      19.77395683 
Au      20.59907091      15.76611748      14.78684441 
Au      15.48640126      20.30834643      19.46822177 
Au      19.18325202      20.36047617      15.22808393 
Au      20.04644136      20.33487290      18.06813554 
Ag      14.52939967      20.37641426      16.65581354 
Ag      17.69647398      12.77589911      18.73500936 
Ag      16.87269198      12.81688074      15.72484649 
Ag      16.02326917      17.14307929      12.98773489 
Ag      18.53889323      17.00807084      21.58788426 
Ag      19.66280827      12.98822809      15.07928690 
Au      14.88907922      12.98973760      19.37097896 
Ag      13.10808350      18.47198636      20.06577357 
Ag      21.43364524      18.58106529      14.62480237 
Ag      20.44657358      12.94427360      17.89250579 
Ag      14.09752627      13.00313513      16.57737921 
Au      22.22489880      18.52486128      17.35572575 
Ag      12.37754705      18.61493136      17.30949599 
Ag      17.76974857      22.02379998      18.70053388 
Au      16.80840567      22.04441398      16.01819246 
Ag      20.42321379      19.18544938      22.05197544 
Au      14.11856734      19.32437372      12.68600024 
Ag      18.72742302      14.29975584      22.54627952 
Ag      15.75425925      14.46566323      11.96838909 
Ag      17.31777090      19.37693354      11.68308751 
Ag      17.25362600      19.20341726      22.99945123 
Ag      18.27554404      16.30367348      11.33132865 
Au      16.31783511      16.09910163      23.19965080 
Ag      21.30637825      16.23449533      21.79739611 
Ag      13.23317750      16.42231266      12.82743344 
Ag      23.22782495      16.46230837      15.59454499 
Au      11.33931233      16.48113903      18.91754183 
Ag      22.37905186      13.72429938      15.82532349 
Ag      12.15677208      13.72006626      18.64998561 
Ag      15.03731965      22.81617763      18.22845005 
Au      19.61601503      22.81049818      16.54517209 
Au      17.74049157      12.48080378      12.94268514 
Ag      16.78362978      12.29644995      21.48824229 
Ag      20.14448853      14.27701897      12.44122089 
Au      14.41164352      14.05026429      21.98596728 
Ag      21.91669730      21.07872656      15.97355455 
Au      12.79898299      21.07842653      18.85588495 
Ag      13.66144960      16.97998165      22.45938789 
Au      20.94955958      17.17536314      12.22980073 
Ag      22.28223666      19.87304357      19.90211029 
Ag      12.29048186      19.99192842      14.81506235 
Au      19.99979285      21.69168914      20.50449300 
Ag      14.62048863      21.80454431      14.19771553 
Au      15.78621430      10.90092843      17.52335824 
Au      18.77149164      10.87411737      16.88164882 
Ag      22.13482290      14.09116543      19.95477572 
Ag      12.41043584      14.20066742      14.53079463 
Ag      17.02005512      21.72680065      21.49194147 
Au      17.59907216      21.79491012      13.22938850 
Ag      19.75096099      12.23276844      20.67903821 
Ag      14.78746403      12.32620035      13.80780852 
Au      23.14651709      16.85965917      19.53059573 
Ag      11.39822299      16.98432476      15.09966504 
Ag      20.07523790      20.25404322      12.59512130 
Ag      14.51299830      20.09542273      22.07591500 
Au      20.70497490      23.25911189      13.69094854 
Ag      14.04480257      22.98528710      21.08916466 
Ag      24.50912092      14.59293311      17.87465499 
Ag      10.00779624      14.60798888      16.61578917 
Ag      17.24484130      24.77353938      17.38321435 
Ag      21.65733647      10.85637271      14.90031588 
Au      13.01277470      10.71753517      19.66392211 
Au      16.23569477       9.77233168      13.80486934 
Ag      18.12253012       9.78593945      20.68037995 
Au      10.38086133      18.21589140      21.19600107 
Ag      24.09821532      18.31105115      13.43827124 
Au      24.57616696      20.34099546      17.02536164 
Ag      10.15442187      20.44460360      17.72364030 
Ag      23.64572789      18.35288108      22.12900814 
Ag      10.87620170      18.50627315      12.54498880 
S      19.60909477       9.62276285      14.81388090 
S      15.07639577       9.57720701      19.64054786 
Au      14.64819275      18.76002324      24.80457578 
Ag      19.88288565      18.85418937       9.93567455 
Ag      18.38319945      13.42173819      10.11556812 
Ag      16.25313815      13.19214352      24.33552454 
Ag      19.27628257      21.90783844      23.44157523 
Au      15.36243152      22.11486157      11.23235528 
S      18.62409016      24.01388467      12.87512410 
S      16.06383301      23.96562768      22.00069377 
S      24.12900497      12.73743715      19.39423759 
S      10.41755287      12.81727163      15.05670496 
Au      12.71645209      13.53407721      11.62456192 
Ag      21.70009387      13.32448650      22.83699109 
S       9.01405474      16.18198834      18.16294689 
S      25.56220685      16.11339291      16.30451023 
S      11.23512814      17.00466666      23.04091567 
S      23.27769945      17.21403887      11.43058116 
S      22.89581094      22.74004273      14.36064109 
S      11.72439497      22.68622468      20.39698516 
S      22.23096623      19.36552721      23.77632974 
S      12.36455147      19.50762746      10.93829052 
S      18.95314536       8.98874388      18.59256864 
S      15.39271750       9.01400051      15.84762544 
S      16.00565532      13.45546250       9.69982797 
S      18.62940643      13.24639594      24.81252259 
S      18.38386758      20.27258820      24.94601872 
S      16.21093857      20.50021230       9.73301735 
S      24.27359031      21.24238559      19.19932342 
S      10.34367273      21.39441348      15.49485101 
S      14.86183380      25.17925756      17.52372033 
S      19.65240738      25.10536263      17.34676669 
S      17.06580213      10.46310212      11.70402625 
S      17.41119042      10.32768228      22.92247098 
S      15.93003218      16.91990337      25.53151260 
S      18.51832953      17.12139529       8.97913384 
S      22.07993111      15.38638163      24.00963599 
S      12.47374632      15.61909335      10.56209367 
S      23.75158395      12.00594878      14.67171895 
S      10.94743572      11.85096115      19.80294595 
S      13.80139319      13.21928028      24.18276372 
S      20.81455480      13.36576740      10.25202519 
S      21.64819635      11.11476277      21.88306544 
S      12.84743485      11.35097683      12.50237296 
S      20.67393302      23.38915895      22.10580512 
S      14.01660050      23.57264022      12.54794503 
S      25.19845430      16.97698416      20.86062116 
S       9.29974170      17.15947308      13.78601918 
S      13.63473398      20.83720052      24.28933604 
S      20.89432191      21.00646394      10.38166415 
S      25.52956306      19.46937310      15.02606860 
S       9.05120589      19.44321183      19.66224899 
C      18.96494433      14.57236670      26.03834108 
C      15.63056195      14.73404979       8.43957651 
C      23.58593381      22.93136040      18.99753694 
C      11.08189244      23.06497634      15.69536284 
C      20.75803230       8.75896517      18.83382224 
C      13.56897806       8.99409184      15.63419724 
C      10.67075761      15.28267452      22.75729079 
C      23.86305334      15.47934350      11.56129774 
C       8.16672491      15.19235897      19.45570892 
C      26.37246199      15.04697248      15.04676009 
C      22.83776846      21.09191565      23.94403589 
C      11.79957863      21.24846489      10.79900778 
C      14.71140599      26.27891380      18.99341971 
C      19.90317203      26.24279926      15.92345636 
C      23.90273302      15.49427360      24.22221987 
C      10.66840665      15.79907545      10.27387361 
C      19.70609938      16.08274058       8.03630664 
C      14.74995060      15.85818608      26.44974754 
C      19.73969875      24.90207356      21.65080023 
C      14.99709359      25.04505681      13.03434350 
C      21.34847592      11.64610502      10.62216022 
C      13.16825190      11.52555497      23.86437700 
C      24.87658339      11.23817132      15.90929925 
C      19.99586799       7.89820360      15.32819311 
C      14.72636345       7.83937478      19.17127009 
C      26.36895572      18.05365757      19.94299037 
C       8.16030746      18.28000668      14.69627840 
C      18.88795028      24.26600397      11.07886504 
C      15.73227127      24.16951931      23.79684461 
C      23.46253467      24.19535173      15.32572753 
C      11.29871417      24.19503187      19.44107101 
C      17.43546398      21.34226010       8.65862881 
C      21.00481776      10.09502413      23.27167136 
C      13.49679004      10.36940991      11.09248101 
C      11.81443893      20.60995645      24.26367274 
C      22.72471310      20.85416577      10.39245684 
C       9.19986031      13.07977779      13.70463066 
C      18.47847189       9.35596831      11.33812511 
C      15.99578973       9.19866611      23.22935284 
C       8.50019578      20.90737793      20.61807656 
C      26.09977685      20.96704772      14.13343749 
C      17.16799008      21.12193306      26.03025149 
H      16.64786460      20.35163440      26.61284209 
H      16.43094819      21.69350020      25.45993408 
H      17.71446963      21.78973941      26.70574874 
C      25.35155882      12.96934816      20.74566422 
H      26.30929089      12.54145646      20.42737111 
H      24.98408860      12.43238408      21.62871953 
H      25.48751684      14.03073701      20.98334346 
C       9.87704549      11.05507593      18.53748097 
H       8.95526876      11.64633762      18.47412939 
H       9.63780078      10.03816570      18.86690844 
H      10.35012048      11.03407207      17.55097155 
H      26.68444427      15.68591664      14.21144169 
H      25.69433385      14.26793092      14.67900776 
H      27.25826321      14.58453976      15.49708465 
H      26.62133673      17.56828447      18.99296617 
H      27.26857297      18.15630665      20.56168920 
H      25.94496869      19.04365415      19.75005530 
H      26.58827816      20.63712562      13.20884839 
H      26.82957133      21.48907807      14.76290542 
H      25.26235062      21.63333170      13.89470573 
H      24.34351252      23.57223640      18.53399042 
H      23.34509157      23.30528371      20.00011844 
H      22.67124447      22.92350074      18.39321505 
H      23.58674052      25.04921845      14.65047805 
H      24.43085418      23.93580962      15.77133023 
H      22.75184912      24.44443965      16.12069525 
H      20.09388096      25.25334910      20.67472081 
H      19.95322926      25.65792546      22.41624060 
H      18.66051321      24.71353214      21.60957306 
H      20.96274694      26.22308237      15.64328050 
H      19.62674450      27.25217960      16.24979840 
H      19.29887691      25.94911246      15.05968610 
H      17.90068513      24.31628365      10.60302940 
H      19.47406107      23.44429781      10.65114817 
H      19.41931705      25.21457267      10.93852944 
H      15.11232455      27.26504503      18.73407741 
H      15.24476524      25.87628472      19.86104166 
H      13.64703151      26.37461357      19.23940648 
H      14.99280362      25.75691573      12.20103272 
H      16.02802032      24.77835109      13.29027099 
H      14.50911976      25.49466923      13.90734599 
H      10.34607858      24.02052704      18.92654047 
H      12.07450862      24.43272095      18.70417130 
H      11.18535051      25.02819758      20.14463237 
H      16.91196948      22.07705409       8.03688464 
H      17.88320803      20.56953050       8.02075335 
H      18.22520580      21.83218724       9.23501367 
H      23.08950947      21.12439345       9.39453034 
H      23.04756356      19.83487875      10.62710472 
H      23.12959320      21.55196671      11.13438225 
H      23.31754054      14.88056452      10.82166195 
H      23.68154743      15.06930642      12.56131120 
H      24.93656512      15.46592388      11.34025646 
H      20.02296048      16.64198245       7.14880642 
H      19.18994702      15.16477507       7.72672359 
H      20.58102873      15.81241710       8.63496344 
H      21.22178288      11.03075051       9.72416104 
H      20.77974796      11.21478108      11.45162522 
H      22.40976596      11.67534167      10.89576356 
H      18.98662531       9.74968866      10.45040006 
H      18.07399867       8.36085574      11.11909528 
H      19.16805839       9.30482808      12.18821808 
H      13.29745191       8.10526471      15.05286111 
H      13.21080108       9.89335059      15.12036113 
H      13.11131134       8.94167612      16.63030171 
H      12.66658763      10.16276102      10.40777929 
H      13.89315956       9.43045213      11.49734810 
H      14.29531576      10.90079756      10.56378542 
H      15.82166394      14.30257556       7.45023556 
H      16.24827907      15.62955532       8.57736504 
H      14.57031663      14.99977656       8.52987496 
H       9.59429824      12.59972948      12.80093621 
H       9.03585299      14.14684232      13.51717207 
H       8.25297371      12.60840404      13.99194894 
H      10.36264772      15.07819859       9.50763156 
H      10.50167854      16.82085668       9.90950606 
H      10.08892747      15.64074767      11.18831455 
H       7.26651964      18.42225929      14.07779329 
H       8.61959978      19.25339303      14.89543599 
H      10.83729024      21.25087935      10.27398668 
H      12.54545229      21.80092496      10.21392308 
H      11.68526577      21.72291023      11.77882644 
H      11.38206158      23.42877751      14.70564985 
H      11.96150009      23.03739169      16.34916773 
H      10.32483690      23.73465087      16.11847401 
H      21.07064049       7.74426860      15.46024152 
H      19.63016003       7.23496967      14.53474474 
H      19.46626714       7.67564717      16.26358908 
H      25.16317229      10.24407109      15.54902872 
H      24.41535271      11.16302540      16.89877765 
H      25.76989109      11.86978448      15.98711625 
H      24.13911550      16.50787608      24.57080760 
H      24.44017549      15.29956299      23.28943057 
H      24.20702591      14.76486456      24.98127101 
H      20.02660841      14.83921103      25.97067449 
H      18.74512948      14.17507095      27.03592311 
H      18.35320807      15.46181105      25.85296620 
H      15.28160936      14.93956441      26.72937898 
H      13.87585070      15.59909869      25.84511119 
H      14.43877096      16.39719094      27.35171432 
H      12.11424747      11.60514799      23.57395484 
H      13.25261215      10.94429198      24.78997350 
H      13.72397894      11.03404408      23.06029397 
H      16.38996488       8.18971665      23.39623773 
H      15.30304209       9.18749006      22.38064116 
H      15.47807831       9.53859901      24.13341105 
H      20.57487492       9.17539541      22.85725384 
H      20.23283894      10.62018239      23.84395184 
H      21.84860109       9.84811530      23.92611434 
H      15.69597627       7.34475452      19.03487549 
H      14.15769198       7.77544371      18.23893203 
H      22.14301178      21.63143045      24.60023830 
H      22.89349845      21.60653467      22.97986688 
H      23.83108399      21.06856454      24.40596690 
H      11.38665101      21.50902551      23.80413422 
H      11.45595176      20.51088688      25.29405407 
H      11.51827580      19.73120980      23.68206310 
H      15.17295355      25.10108655      23.94203594 
H      16.69209735      24.23558335      24.32317346 
H      15.14981481      23.33063553      24.19313577 
H       7.76936000      21.44828451      20.00455021 
H       9.34528124      21.56501355      20.85740517 
H       7.23164311      14.80428934      19.03505240 
H       7.94242752      15.86057114      20.29661265 
H       8.79134720      14.36133540      19.80085168 
H       9.58237364      15.24359945      22.87434152 
H      11.15524359      14.65450103      23.51465039 
H      10.95796000      14.92918135      21.75985753 
H      21.23098352       8.65169358      17.85044766 
H      20.91172378       7.84078254      19.41326504 
H      21.20615134       9.60473503      19.36816769 
H      14.17045279       7.35627552      19.98245383 
H       8.01633091      20.56310836      21.53892332 
H       7.88434460      17.80179507      15.64313375 
