322
Properties=species:S:1:pos:R:3 i=295 optimized=T E=-4399.7110796224 pbc="F F F" jobid=102_44-Ag-59_8-000006-PBE
Ag      16.89508131      17.04440490      15.83831528 
Ag      17.69698691      17.02057696      18.68253368 
Ag      18.61926735      14.99291273      16.89404115 
Ag      15.87049977      14.96134406      17.60133236 
Ag      19.52401698      17.78526567      16.59098093 
Au      15.08539394      17.77253096      17.91028453 
Ag      17.32366236      19.53729602      17.27929233 
Ag      17.88356505      15.06845000      13.95019369 
Ag      16.65866303      14.98425020      20.48769816 
Ag      18.21439186      19.51956354      20.14481559 
Ag      16.42240445      19.60049701      14.42560706 
Au      19.46703241      14.97647290      19.85749552 
Au      15.04530255      15.00949918      14.66178193 
Au      18.71183828      17.90408279      13.63997961 
Ag      15.90904641      17.82207366      20.83837258 
Ag      20.42319899      17.74191371      19.44836316 
Ag      14.16676155      17.80865627      15.06771925 
Au      21.34875862      15.72406673      17.60378819 
Ag      13.18894335      15.76208715      16.83294690 
Ag      13.93650157      15.73917352      19.71699357 
Ag      20.58018730      15.77264241      14.73926892 
Ag      15.47938185      20.33318855      19.38205797 
Ag      19.16398545      20.36011855      15.18285992 
Ag      20.04566704      20.36465330      17.99603585 
Au      14.58141616      20.43470221      16.55265803 
Au      17.59303894      12.80714061      18.71038332 
Au      16.81902294      12.85219140      15.71899741 
Au      16.03657571      17.12792208      12.94340570 
Ag      18.55005352      17.02807211      21.59455833 
Au      19.65036049      13.05467701      15.07386720 
Ag      14.77257298      12.98289873      19.34990883 
Au      13.18194222      18.52957576      19.96610913 
Au      21.41457008      18.52105910      14.53460291 
Au      20.40960788      12.97490905      17.87195454 
Ag      14.05775017      13.00340446      16.55175615 
Au      22.17842709      18.59604457      17.29503147 
Au      12.39635441      18.64268024      17.23388419 
Ag      17.78204566      22.05753762      18.64827992 
Ag      16.92517385      22.07754470      15.94524543 
Au      20.42772872      19.19192829      21.94771820 
Au      14.17446327      19.32200108      12.59104880 
Au      18.67451596      14.26619539      22.48244291 
Au      15.82694710      14.41187547      11.96667579 
Au      17.34924430      19.38812265      11.62112048 
Ag      17.33290679      19.27978581      22.93569868 
Ag      18.29428683      16.16534809      11.29428211 
Ag      16.27949329      16.10091896      23.19088096 
Ag      21.43350331      16.33647874      21.71618981 
Ag      13.21906058      16.42858258      12.73594743 
Ag      23.25522254      16.50608075      15.61534627 
Au      11.30260437      16.53344701      18.85074722 
Ag      22.41617888      13.71545551      15.90649613 
Ag      12.07924128      13.77278709      18.54336280 
Au      15.03735544      22.84832300      18.02570307 
Ag      19.66517526      22.81332143      16.51277635 
Ag      17.79603898      12.35887845      12.98544773 
Ag      16.69361338      12.25842257      21.43242617 
Ag      20.15349885      14.16116258      12.46809303 
Au      14.41707031      14.14519847      21.98487600 
Ag      21.89513115      21.06299661      15.79727898 
Au      12.78745817      21.15723291      18.72272623 
Au      13.63740360      16.99920990      22.34602791 
Ag      20.95748457      17.08657254      12.09670600 
Ag      22.32471665      19.90344362      19.85595326 
Au      12.33108369      20.00999158      14.70369785 
Au      19.99085037      21.72023188      20.44833641 
Au      14.68841642      21.85609688      14.14408346 
Ag      15.76400242      10.82999909      17.48886968 
Au      18.69753762      10.87358085      16.91535975 
Au      22.13098184      14.15507055      19.93183815 
Ag      12.35136536      14.23693873      14.49608449 
Au      16.98315283      21.73767041      21.40674488 
Ag      17.65548022      21.82975990      13.14313759 
Ag      19.69265992      12.15963003      20.59469879 
Ag      14.80106250      12.27245534      13.78516003 
Ag      23.27170160      16.83279831      19.32033427 
Ag      11.36789122      17.02016241      15.08106132 
Ag      20.11798306      20.17521586      12.53860894 
Au      14.53112706      20.04340246      22.02570688 
Ag      20.57476761      23.02277565      13.65642362 
Ag      14.15675473      22.95184431      20.99749661 
Au      24.80181538      14.50009706      17.73853868 
Ag       9.90689712      14.70191255      16.57319445 
Ag      17.46411830      24.82290560      17.39249812 
Ag      21.45867870      10.80813609      14.82549522 
Au      12.82306718      10.81750108      19.50993431 
Ag      16.38298467       9.81924883      13.76797959 
Au      18.15064891       9.68539278      20.71479893 
Ag      10.50621236      18.30213256      21.08377469 
Ag      24.10427730      18.24184619      13.38706179 
Ag      24.50197862      20.33605926      16.95731954 
Au      10.07503384      20.45585083      17.59886326 
Au      23.74265352      18.37668084      22.07994473 
Au      10.86084057      18.53864307      12.44603870 
S      19.38238721       9.58539131      14.83928723 
S      14.87798824       9.68936913      19.64060500 
Ag      14.76830106      18.67292197      24.66913760 
Au      20.00091208      18.88762128       9.78828582 
Ag      18.40713844      13.25912213      10.13749103 
Ag      16.12522399      13.11309321      24.30245227 
Ag      19.25466526      21.88778813      23.37282796 
Ag      15.36321321      22.04876828      11.20196080 
S      18.58666329      24.09563717      12.76437737 
S      16.17170436      23.99854352      21.92431746 
S      24.17937287      12.93630496      19.39323869 
S      10.31084133      12.93589037      14.98438836 
Au      12.67742993      13.42808111      11.64274598 
Au      21.83186737      13.29157836      22.78279892 
S       8.94896723      16.18372971      18.23435996 
S      25.64638660      15.99026145      16.12643296 
S      11.29414081      17.13626841      23.08418012 
S      23.35238166      17.04842465      11.41543335 
S      22.90266847      22.75684006      14.27692088 
S      11.81272087      22.66963109      20.39170954 
S      22.24506069      19.31689017      23.64676126 
S      12.35400714      19.53756311      10.90658765 
S      18.88887145       8.95461953      18.61865375 
S      15.41810613       8.97046200      15.78139683 
S      16.02044704      13.43109747       9.74236440 
S      18.51396083      13.21076047      24.67765488 
S      18.43959889      20.25582704      24.94879484 
S      16.25998485      20.41162772       9.68272941 
S      24.24954594      21.34133029      19.15257300 
S      10.44029936      21.41210040      15.44494763 
S      15.07888669      25.22622645      17.51209905 
S      19.84978737      25.17165343      17.25874897 
S      17.13976290      10.41885527      11.54524017 
S      17.36581400      10.25872196      22.86727667 
S      15.99853227      16.82893826      25.58458886 
S      18.80801570      17.02702405       8.97735240 
S      22.06575589      15.32872462      23.93404581 
S      12.42341429      15.48855833      10.54609207 
S      23.57892179      11.92687434      14.63282268 
S      10.74904194      11.94253042      19.61966480 
S      13.69714063      13.10944351      24.08519512 
S      20.83203888      13.24270556      10.28049619 
S      21.65337932      11.14556815      21.82232295 
S      12.85449444      11.26385555      12.56136839 
S      20.71144888      23.38318546      22.08106400 
S      14.00314470      23.55672358      12.54735492 
S      25.27050228      17.14297112      20.77395208 
S       9.31232019      17.22898136      13.67166405 
S      13.81387102      20.87606987      24.21774894 
S      20.98600471      20.97382152      10.34319726 
S      25.53009041      19.41901181      14.95508232 
S       9.06003358      19.54076157      19.54736197 
C      18.90463077      14.47964556      25.94040807 
C      15.67646601      14.77552543       8.54215544 
C      23.50514430      23.00090332      18.90530339 
C      11.20655838      23.05054947      15.73787564 
C      20.70019135       8.74206558      18.81084819 
C      13.60333592       8.84931159      15.51935031 
C      10.64262847      15.42737382      22.93777356 
C      23.93165158      15.31940620      11.63508512 
C       8.18794469      15.08822656      19.49570166 
C      26.32286340      14.92879155      14.79010686 
C      22.82199981      21.04442899      23.85865887 
C      11.78502803      21.27648509      10.78394046 
C      14.86402495      26.23170052      19.03596963 
C      20.00517884      26.30461718      15.81488470 
C      23.86093230      15.49521153      24.28098126 
C      10.62104240      15.67289800      10.25007675 
C      20.06472168      16.01674794       8.10185874 
C      14.71238850      15.79516887      26.39443564 
C      19.81153311      24.92128307      21.64939926 
C      14.95368504      25.07114570      12.95693355 
C      21.39412327      11.54101788      10.69043751 
C      13.14150140      11.42256818      23.62039692 
C      24.68490063      11.09025855      15.84332822 
C      19.74434956       7.84707665      15.32016386 
C      14.53338202       7.93383867      19.22158599 
C      26.41992257      18.31953145      19.96046506 
C       8.17816217      18.36617215      14.55922862 
C      18.95551736      24.33712142      10.97964269 
C      15.85002950      24.13691480      23.72484887 
C      23.34581739      24.26733502      15.22424098 
C      11.31963360      24.19976531      19.50511193 
C      17.49812401      21.26388799       8.62977303 
C      21.03781582      10.10973970      23.20761846 
C      13.49765191      10.26257855      11.16218877 
C      11.98378635      20.73235913      24.25142127 
C      22.80861508      20.75761837      10.36446241 
C       9.14341845      13.22231715      13.59490393 
C      18.52896638       9.25768550      11.23717081 
C      15.98420999       9.08843488      23.16167242 
C       8.54704629      21.02961861      20.48433078 
C      26.08223385      20.91199865      14.04198759 
C      17.22100376      21.07841976      26.04941982 
H      16.75001098      20.29903091      26.66171039 
H      16.44526783      21.60805472      25.48923406 
H      17.75440098      21.78169991      26.69893564 
C      25.36252566      13.19585177      20.76948783 
H      26.31788087      12.73577714      20.49131295 
H      24.94458309      12.69282897      21.65055930 
H      25.50645940      14.26213317      20.97437557 
C       9.70524505      11.16730753      18.32056664 
H       8.80001633      11.77864701      18.22017125 
H       9.43238360      10.15814598      18.64778709 
H      10.21262309      11.12880613      17.35197687 
H      26.56126185      15.58733771      13.94550966 
H      25.59979421      14.16806193      14.47410127 
H      27.24008445      14.44936918      15.14971915 
H      26.83256185      17.81965993      19.07633841 
H      27.22505225      18.55743275      20.66482146 
H      25.91280870      19.24174478      19.66042466 
H      26.53223813      20.59440517      13.09444855 
H      26.84003125      21.42354972      14.64712968 
H      25.24234089      21.59151494      13.84815793 
H      24.25764042      23.66256569      18.46240393 
H      23.20244837      23.38694643      19.88581940 
H      22.62159348      22.95434715      18.25695686 
H      23.39430345      25.11764837      14.53461813 
H      24.33307666      24.10867515      15.67460050 
H      22.61635544      24.47182861      16.01600196 
H      20.18241408      25.28943050      20.68572693 
H      20.02731669      25.65727660      22.43348727 
H      18.72968575      24.75115398      21.59192835 
H      21.07207127      26.41678072      15.58804379 
H      19.58874929      27.28046853      16.08765477 
H      19.49007680      25.91222978      14.93136071 
H      18.00794625      24.44743905      10.43877716 
H      19.51902163      23.49084847      10.57085370 
H      19.54659118      25.25369944      10.86886993 
H      15.20832817      27.24913499      18.81694993 
H      15.42815882      25.81994357      19.87933384 
H      13.79771880      26.25262960      19.28967317 
H      14.75675266      25.80569075      12.16681289 
H      16.03003561      24.86991900      13.01596164 
H      14.59502922      25.45791562      13.91779600 
H      10.35952210      24.01711340      19.00733382 
H      12.06798345      24.48479213      18.75810402 
H      11.20245455      25.00405759      20.24103767 
H      16.95438069      21.90734040       7.92810585 
H      18.05530774      20.49648758       8.07810296 
H      18.19896975      21.86335557       9.21701845 
H      23.17984725      20.83692855       9.33649388 
H      23.09715921      19.78791344      10.78252375 
H      23.22915502      21.56346153      10.97759849 
H      23.43386542      14.69951800      10.87967779 
H      23.68484515      14.93261034      12.63054550 
H      25.01664339      15.29122712      11.48490522 
H      20.39346684      16.56649909       7.21309492 
H      19.58382658      15.07770496       7.80037586 
H      20.92298992      15.79077579       8.74192586 
H      21.32184859      10.91668155       9.79263468 
H      20.79962838      11.10036470      11.49692428 
H      22.44080743      11.60023977      11.01093766 
H      19.07116347       9.59848418      10.34795984 
H      18.10930095       8.26342148      11.04602573 
H      19.20759405       9.21253607      12.09610494 
H      13.39040893       7.91815749      14.98114426 
H      13.21755578       9.69779417      14.94302313 
H      13.10605700       8.82580988      16.49725074 
H      12.66666780      10.05637240      10.47846920 
H      13.88472013       9.32311923      11.57532166 
H      14.30394839      10.77838727      10.63089964 
H      15.84416556      14.36566495       7.53888698 
H      16.32849197      15.64170242       8.69928527 
H      14.62597031      15.07092895       8.65218851 
H       9.56044661      12.73992854      12.70240995 
H       9.00079212      14.29180417      13.40578524 
H       8.18126051      12.76346596      13.85005722 
H      10.31709887      14.94974492       9.48522406 
H      10.45578219      16.69446615       9.88618479 
H      10.03992390      15.51975729      11.16372166 
H       7.44035348      18.75274748      13.84753136 
H       8.71653424      19.19799055      15.02412761 
H      10.79866306      21.28016649      10.30606612 
H      12.50317826      21.81775148      10.15487070 
H      11.72543575      21.75382273      11.76665831 
H      11.52344573      23.44676940      14.76557100 
H      12.07791084      22.96710893      16.39873784 
H      10.45181577      23.70802110      16.18398340 
H      19.58427903       7.21979594      14.43490995 
H      19.05000341       7.54742527      16.11440209 
H      20.77577275       7.72742831      15.66392402 
H      25.00013988      10.12924818      15.42178048 
H      24.19141283      10.93184330      16.80675598 
H      25.56219658      11.72966838      16.00005039 
H      24.02207818      16.50498363      24.67809729 
H      24.46314913      15.36462380      23.37733600 
H      24.14376288      14.74934711      25.03199810 
H      19.95168287      14.77945555      25.81035334 
H      18.77077318      14.00905049      26.92188861 
H      18.24710134      15.35277546      25.85604491 
H      15.17123179      14.84276174      26.68942317 
H      13.87034603      15.59242990      25.72552542 
H      14.35569887      16.32010855      27.28755821 
H      12.10376501      11.49180922      23.27405243 
H      13.19108140      10.78204599      24.50850622 
H      13.75710464      11.00215088      22.81909851 
H      16.39996837       8.08538518      23.30867119 
H      15.28457375       9.08607139      22.31832407 
H      15.47170883       9.40842667      24.07655198 
H      20.63586602       9.18408104      22.77820662 
H      20.24575456      10.61605113      23.76889719 
H      21.88137540       9.88276317      23.86906812 
H      15.43756201       7.37328361      19.49068161 
H      14.34954551       7.81157068      18.14910492 
H      22.08918928      21.56006408      24.49230795 
H      22.91185968      21.56689973      22.90123252 
H      23.79516492      21.01824963      24.36224344 
H      11.56218836      21.43757518      23.52606520 
H      11.65313315      20.99848307      25.26271970 
H      11.65185637      19.71539393      24.01865377 
H      15.30866654      25.07481650      23.89862197 
H      16.80985134      24.16440890      24.25503956 
H      15.24607405      23.29568308      24.08478660 
H       7.81745628      21.58676661      19.88542868 
H       9.41114567      21.66577161      20.71589840 
H       7.26008002      14.67809167      19.07998137 
H       7.95340980      15.69812180      20.37682176 
H       8.86014342      14.27100868      19.78123860 
H       9.57029317      15.45194048      23.16448645 
H      11.16551505      14.79565895      23.66569628 
H      10.80362535      15.02758509      21.93040118 
H      21.12239967       8.54910986      17.81759113 
H      20.88371609       7.87983180      19.46212772 
H      21.16472276       9.63659797      19.24066028 
H      13.68290240       7.56804656      19.80529004 
H       8.07286228      20.69212620      21.41355305 
H       7.67604128      17.78168498      15.33941469 
