322
Properties=species:S:1:pos:R:3 i=296 optimized=T E=-4206.9307458554 pbc="F F F" jobid=102_44-Ag-09_8-000010-PBE
Au      16.80157557      17.08230302      15.81338669 
Au      17.62486218      17.01134781      18.69960940 
Au      18.56202385      14.97945444      16.83062612 
Au      15.82638070      14.94891545      17.59369494 
Au      19.48824807      17.81157036      16.59021497 
Au      14.96143259      17.80181099      17.95430342 
Au      17.21170199      19.56276780      17.30322544 
Au      17.86459649      15.13474103      13.88676985 
Ag      16.58012435      14.98644509      20.54018504 
Au      18.15113883      19.53430304      20.20512736 
Au      16.24479104      19.65844550      14.40898098 
Au      19.37244461      14.96051845      19.84710996 
Au      15.06408458      15.02989882      14.62768969 
Au      18.61018262      18.02054788      13.62492877 
Ag      15.83676273      17.84174464      20.88311113 
Au      20.38003466      17.75210321      19.51489360 
Au      14.04638364      17.82712820      15.04393613 
Au      21.33565586      15.74258168      17.61306565 
Au      13.11788236      15.75439139      16.83893338 
Au      13.87977137      15.74757261      19.77899793 
Au      20.58149579      15.80508694      14.72146933 
Au      15.37111681      20.36543896      19.46637026 
Au      19.08360130      20.40970134      15.20070017 
Au      20.00169584      20.38392480      18.02055521 
Au      14.42538516      20.45664689      16.59751056 
Au      17.59168009      12.72158920      18.74443770 
Ag      16.81231738      12.79754159      15.64748519 
Au      15.92320405      17.21362602      12.81340385 
Au      18.48723943      17.02311090      21.68408683 
Au      19.64964716      13.00280329      15.05501701 
Au      14.75989235      12.95426702      19.33553317 
Au      13.09328627      18.54353971      20.03825310 
Au      21.37903978      18.61336009      14.53093956 
Au      20.35650646      12.97937606      17.87049062 
Ag      14.05229915      12.95465844      16.50557815 
Au      22.19107067      18.58473385      17.26943028 
Au      12.27357793      18.65413141      17.26328630 
Au      17.66372731      22.09985746      18.69347149 
Au      16.75028098      22.17426068      16.01350526 
Ag      20.36992340      19.32162305      22.05845102 
Au      14.03672402      19.48286516      12.59040871 
Au      18.64753283      14.25352605      22.51175581 
Au      15.74500251      14.47224397      11.90608184 
Au      17.31153076      19.48713401      11.58073568 
Au      17.22888976      19.25283725      23.00411898 
Au      18.22818819      16.27852364      11.24784339 
Au      16.21869729      16.07764314      23.21920160 
Au      21.35108747      16.40680091      21.77560036 
Au      13.09970369      16.53516426      12.71055363 
Ag      23.23506424      16.52792697      15.54292486 
Au      11.25737432      16.53757999      18.96326911 
Au      22.38328014      13.76990388      15.91063091 
Au      12.06829931      13.74643738      18.47509485 
Ag      14.87721844      22.86746193      18.16504992 
Au      19.57626605      22.83684746      16.52121146 
Au      17.81201286      12.46446502      12.89867762 
Au      16.56937856      12.25766926      21.47161605 
Au      20.17722113      14.26087444      12.42343555 
Au      14.26312657      14.12666754      21.99849349 
Ag      21.83172649      21.13872000      15.85018482 
Au      12.65124372      21.15344584      18.75615578 
Au      13.60521742      17.01317308      22.45589731 
Au      20.86234296      17.18314231      12.09778919 
Au      22.22849067      19.89838596      19.84237490 
Ag      12.16063954      20.02373495      14.73835245 
Au      19.98335014      21.78837450      20.43394790 
Au      14.48155793      21.94734138      14.23577503 
Au      15.76362266      10.84870141      17.50589139 
Au      18.71203877      10.83444599      16.85428407 
Au      22.05247404      14.14251291      19.98104260 
Au      12.38671436      14.22407244      14.45856621 
Au      16.98695773      21.77162295      21.48956392 
Au      17.48695312      21.90795561      13.22026139 
Au      19.68570087      12.16897254      20.59818676 
Au      14.67760038      12.33806033      13.74171424 
Au      23.20427865      16.84133015      19.37465582 
Au      11.25169627      16.95756520      15.11930794 
Au      20.07795430      20.41884856      12.61632562 
Au      14.42571774      20.13508103      22.07346682 
Au      20.65442119      23.33757700      13.67440476 
Ag      13.96828618      22.95522718      21.08226815 
Au      24.72580080      14.55277802      17.79491820 
Au       9.72425696      14.58645551      16.60222688 
Au      17.16214222      24.97259215      17.46458924 
Au      21.49190319      10.72827821      14.74068190 
Au      12.93810630      10.64623812      19.54400424 
Au      16.13505865       9.79083664      13.80348313 
Au      18.22739441       9.60983968      20.55655624 
Au      10.35360639      18.32113622      21.16008730 
Au      24.10323825      18.39695813      13.42133456 
Au      24.46744739      20.42411717      16.98150842 
Au       9.96728304      20.44936920      17.65255263 
Au      23.66727661      18.52896203      22.12897790 
Au      10.72849094      18.68081833      12.43815391 
S      19.44059380       9.58748473      14.73480231 
S      14.96124791       9.46619723      19.62762137 
Au      14.65594316      18.70254996      24.86302149 
Au      19.85316253      18.96966389       9.75952817 
Au      18.36452066      13.39646030       9.95887482 
Au      16.05400292      13.12158396      24.42388948 
Au      19.24417051      21.97821526      23.51038562 
Au      15.25571503      22.25441035      11.20200950 
S      18.55379052      24.08672586      12.89089090 
S      16.00529386      23.95619159      21.95417597 
S      24.11570533      12.95983551      19.43526565 
S      10.29700623      13.03884644      14.91294219 
Au      12.59636845      13.44114110      11.53754955 
Au      21.77847928      13.31025939      22.86834360 
S       8.94961254      16.08897550      18.24509108 
S      25.60047380      16.07020699      16.22094252 
S      11.21170781      17.16297983      23.04830168 
S      23.25197224      17.27506537      11.50924590 
S      22.86709433      22.84230877      14.30435113 
S      11.64857411      22.65185191      20.42547354 
S      22.24741367      19.48534953      23.74235499 
S      12.21994549      19.71719105      10.93768706 
S      19.05055281       8.88317177      18.49260687 
S      15.29982798       9.00217904      15.84027164 
S      16.01444003      13.45860136       9.69014455 
S      18.40065184      13.16639262      24.70330836 
S      18.33761458      20.32903879      24.93439916 
S      16.16105227      20.63483662       9.74454441 
S      24.12069344      21.33763912      19.14857007 
S      10.25171789      21.46560632      15.52756623 
S      14.82474583      25.28022122      17.57447457 
S      19.52166551      25.12813209      17.35000901 
S      16.96763924      10.49064157      11.70815433 
S      17.41677320      10.27002696      22.67366507 
S      15.86459150      16.82464136      25.59320646 
S      18.59547591      17.15119716       8.95019843 
S      21.99969729      15.40183628      23.91559689 
S      12.38450380      15.56918326      10.56849863 
S      23.51362339      11.95318152      14.71112763 
S      10.91986199      11.87907803      19.56262659 
S      13.69314432      13.10115930      24.14708896 
S      20.73105890      13.34086415      10.23216218 
S      21.55526195      11.17619730      21.89734097 
S      12.81926479      11.27177569      12.43176363 
S      20.56746723      23.41840409      22.15029833 
S      13.92830860      23.66231897      12.59338462 
S      25.13447508      17.20382042      20.81663456 
S       9.27778567      17.32582551      13.72243594 
S      13.69741244      20.80241618      24.31826616 
S      20.83178980      21.03537441      10.37810120 
S      25.47077569      19.51882979      15.01605770 
S       8.97681915      19.46942827      19.59335782 
C      18.78968751      14.42258154      25.97842835 
C      15.63503890      14.76127189       8.45932734 
C      23.36422444      22.98860921      18.91191812 
C      11.03275640      23.09426963      15.83888733 
C      20.87315346       8.88027458      18.71225988 
C      13.47473513       9.02786916      15.64872962 
C      10.60011784      15.44688671      22.84578629 
C      23.83880644      15.54737220      11.68052542 
C       8.18795236      15.05032180      19.55070448 
C      26.34607450      15.03395015      14.90168724 
C      22.84465945      21.20914890      23.92847509 
C      11.65583838      21.45868343      10.84168961 
C      14.59750075      26.32966179      19.06742058 
C      19.80181435      26.29475065      15.95862731 
C      23.79574101      15.60590633      24.23051408 
C      10.58714512      15.80150910      10.28032520 
C      19.80728336      16.12502768       8.03380724 
C      14.61789971      15.78684322      26.44730532 
C      19.60429832      24.92670386      21.75693997 
C      14.91336651      25.12795635      13.08658466 
C      21.21189550      11.60025773      10.55434860 
C      13.19222992      11.38503036      23.73666853 
C      24.57304092      11.12578349      15.96316273 
C      19.79025289       7.84373882      15.18047105 
C      14.59305188       7.74173231      19.12455265 
C      26.31084020      18.28482788      19.92126965 
C       8.11714662      18.39353166      14.65464174 
C      18.80716726      24.35460529      11.09501568 
C      15.72009381      24.12541027      23.75834060 
C      23.42384962      24.28644277      15.29102122 
C      11.14300212      24.19249567      19.56466579 
C      17.37052613      21.49318200       8.66784097 
C      20.91294938      10.12713096      23.25557064 
C      13.47624802      10.27128411      11.04381892 
C      11.87259105      20.64312184      24.38513004 
C      22.65631032      20.87324523      10.34825857 
C       9.13700566      13.38887435      13.53720639 
C      18.31966263       9.33796444      11.26617001 
C      16.06350736       9.11215003      23.09782456 
C       8.39593221      20.93618981      20.52377421 
C      26.04834059      21.00577138      14.11407964 
C      17.12517968      21.16820282      26.02222430 
H      16.61230265      20.38673813      26.59686116 
H      16.38739270      21.73794012      25.45131691 
H      17.67610380      21.83269615      26.69783310 
C      25.29017562      13.24603522      20.81349754 
H      26.25835179      12.81377682      20.53454979 
H      24.88950664      12.73131757      21.69575398 
H      25.40573184      14.31567976      21.01989479 
C       9.87899401      11.09881670      18.26645695 
H       9.04073261      11.77560442      18.05985858 
H       9.50601103      10.14563270      18.65817659 
H      10.43960355      10.93492116      17.34158909 
H      26.60970818      15.70388541      14.07375117 
H      25.64627047      14.26965353      14.54677864 
H      27.25366765      14.55849553      15.29012332 
H      26.73040590      17.70244583      19.09230425 
H      27.10473785      18.57225883      20.62042748 
H      25.81991391      19.18073864      19.52964460 
H      26.55835224      20.66730687      13.20471410 
H      26.75979918      21.53372135      14.75977387 
H      25.21008361      21.66361749      13.85557087 
H      24.10466019      23.64836591      18.44648248 
H      23.09628907      23.36691157      19.90587287 
H      22.45943125      22.92845234      18.29506761 
H      23.52926040      25.15587955      14.63253446 
H      24.40041050      24.03360083      15.72252750 
H      22.71886031      24.51039039      16.09801964 
H      20.02778911      25.36590822      20.84603475 
H      19.71868509      25.62424079      22.59506296 
H      18.54372433      24.69768941      21.60043717 
H      20.87051048      26.27631148      15.71435894 
H      19.51436518      27.29790521      16.29372505 
H      19.22328389      26.00888699      15.07492954 
H      17.81810478      24.42499258      10.62544015 
H      19.37776270      23.53111910      10.65166446 
H      19.35182505      25.29670298      10.96143591 
H      14.99849524      27.32788525      18.86030706 
H      15.09413412      25.89837299      19.94282211 
H      13.52005866      26.40164995      19.25905146 
H      14.87930205      25.85062447      12.26287780 
H      15.95145636      24.85895851      13.30925802 
H      14.44506391      25.55863684      13.97966876 
H      10.18668709      24.00764951      19.06039890 
H      11.89049656      24.49795464      18.82470553 
H      11.01531084      24.98316181      20.31333597 
H      16.81743308      22.17274259       8.00924541 
H      17.87887204      20.72315334       8.07408421 
H      18.11226908      22.04935534       9.24693458 
H      22.98906146      20.97192733       9.30843157 
H      22.98401068      19.91065277      10.75202476 
H      23.06843998      21.68908055      10.95398768 
H      23.38267230      14.96821770      10.86853694 
H      23.53592673      15.11872626      12.64284768 
H      24.93013402      15.53926432      11.58368157 
H      20.10571420      16.67480928       7.13384381 
H      19.30734028      15.18785802       7.75708499 
H      20.68610799      15.89746176       8.64403555 
H      21.06959609      11.01853666       9.63647824 
H      20.62771921      11.17231896      11.37469510 
H      22.27303046      11.60157319      10.83068279 
H      18.80794009       9.73350312      10.36797380 
H      17.87141130       8.36289734      11.04252912 
H      19.03898957       9.24308684      12.08686972 
H      13.17543524       8.15952960      15.05025502 
H      13.13898689       9.94814069      15.15789773 
H      13.02916086       8.96478541      16.65008398 
H      12.64224017      10.04517301      10.36937113 
H      13.88437600       9.34441363      11.46510375 
H      14.26682171      10.80152291      10.50369390 
H      15.87212354      14.36527192       7.46493755 
H      16.21059058      15.67389609       8.64836396 
H      14.56169601      14.97611710       8.53205954 
H       9.54567834      12.91132414      12.63772042 
H       9.02700947      14.46676743      13.37672174 
H       8.16485497      12.94841453      13.78805294 
H      10.28696599      15.13358967       9.46471486 
H      10.43238030      16.84743043       9.98773420 
H      10.00160591      15.58409721      11.17783151 
H       7.32206311      18.70917291      13.96936656 
H       8.61876393      19.27151467      15.07257874 
H      10.68592969      21.47265481      10.33158980 
H      12.39886532      22.01330791      10.25482429 
H      11.56254960      21.91024196      11.83405108 
H      11.31516773      23.51359421      14.86583150 
H      11.93138687      22.98911031      16.45950834 
H      10.30667335      23.75096498      16.33006351 
H      20.31099318       7.36540937      14.34322222 
H      18.82149659       7.35633532      15.34483645 
H      20.39307744       7.75915096      16.08888667 
H      24.93522457      10.18371041      15.53616479 
H      24.02688010      10.93705875      16.89190999 
H      25.41765351      11.79297828      16.17516840 
H      23.95591901      16.64273584      24.55123817 
H      24.38860171      15.40542992      23.33385613 
H      24.07840918      14.91339797      25.03172065 
H      19.86166270      14.64356422      25.90409334 
H      18.56306381      13.98833109      26.95918636 
H      18.21007704      15.34020784      25.83082546 
H      15.09474829      14.82816024      26.68889970 
H      13.74473767      15.60389789      25.81412042 
H      14.31520505      16.30113028      27.36645916 
H      12.13553568      11.41541717      23.44555145 
H      13.31193436      10.75886960      24.62813620 
H      13.78279640      10.98623367      22.90601676 
H      16.51146267       8.13563261      23.31577202 
H      15.34977474       9.02398324      22.27113055 
H      15.56888053       9.49901926      23.99635188 
H      20.50383813       9.21375750      22.80674461 
H      20.12647083      10.63636962      23.82158253 
H      21.75568661       9.88257759      23.91251121 
H      15.51936543       7.17224426      19.27330091 
H      14.30689302       7.67675241      18.06961330 
H      22.13282112      21.73331658      24.57843572 
H      22.89945367      21.72484562      22.96514484 
H      23.83423743      21.18810639      24.39806969 
H      11.44535471      21.43737108      23.76180590 
H      11.56148577      20.77600955      25.42797796 
H      11.53753542      19.66703348      24.02186426 
H      15.18764628      25.06913297      23.92793265 
H      16.69309186      24.15501386      24.26357898 
H      15.12160320      23.29416990      24.14756483 
H       7.66661231      21.46371900      19.89784877 
H       9.23514281      21.59874846      20.77044437 
H       7.24649505      14.64284467      19.16453292 
H       7.98400830      15.70443602      20.40769875 
H       8.85426161      14.23565105      19.85409692 
H       9.51228844      15.44806087      22.97803832 
H      11.07405233      14.83593968      23.62343693 
H      10.86562503      15.04959238      21.85964800 
H      21.33831913       8.81181346      17.72077576 
H      21.15134414       8.00783043      19.31481123 
H      21.21482189       9.79712708      19.20482500 
H      13.80049619       7.33016350      19.75812424 
H       7.90875857      20.58422771      21.44028990 
H       7.69692355      17.78933138      15.46738387 
