322
Properties=species:S:1:pos:R:3 i=242 optimized=T E=-4324.1497710391 pbc="F F F" jobid=102_44-Ag-40_2-000009-PBE
Ag      16.85818427      16.97307482      15.81119791 
Ag      17.71872915      16.94565101      18.65848659 
Au      18.63404375      14.89096685      16.83496312 
Au      15.89106108      14.93732837      17.65524940 
Ag      19.53582064      17.70410314      16.53919710 
Au      15.05560495      17.73762525      17.96157430 
Ag      17.31915521      19.43997994      17.25359296 
Au      17.82290032      14.95992638      13.86747281 
Au      16.65439413      14.94310798      20.55795966 
Au      18.25559966      19.41362886      20.13683691 
Au      16.33880408      19.49552312      14.38954180 
Ag      19.44597799      14.84476224      19.75552301 
Au      15.04956011      14.96051255      14.63379131 
Ag      18.65620569      17.84094088      13.66327411 
Au      15.90271140      17.80769606      20.83601079 
Ag      20.43225771      17.65475661      19.46526299 
Ag      14.13100403      17.72873190      15.04870750 
Au      21.34768032      15.61224527      17.58176080 
Au      13.13992082      15.68693147      16.87562328 
Ag      13.93639275      15.68130664      19.72633218 
Au      20.58458800      15.68193667      14.71125204 
Ag      15.48548949      20.28573156      19.42507653 
Ag      19.14726858      20.27446891      15.14279722 
Ag      20.07134562      20.25736857      17.99633257 
Au      14.56214144      20.30318733      16.53956394 
Au      17.64077979      12.71754291      18.66847599 
Au      16.85882145      12.77031012      15.65426503 
Ag      15.98724211      17.05295692      12.87611304 
Ag      18.56692700      16.92521036      21.56713707 
Ag      19.65800904      12.90610809      15.02984762 
Ag      14.78813203      12.89047829      19.36719038 
Ag      13.10482381      18.49894654      20.02383099 
Ag      21.44861461      18.48180371      14.48826119 
Ag      20.41435971      12.83648541      17.81973582 
Au      14.07155095      12.97253629      16.56758376 
Au      22.17817908      18.47673618      17.27386011 
Au      12.38145092      18.48997965      17.24815013 
Au      17.79326026      21.95655658      18.65069475 
Au      16.89735162      22.01680524      15.96572232 
Ag      20.45782569      19.13855227      22.00018468 
Au      14.06878201      19.29683617      12.61002876 
Au      18.79741637      14.20826951      22.46318686 
Ag      15.66749250      14.30011346      11.94060475 
Au      17.25342031      19.32522729      11.61604413 
Ag      17.30961429      19.15162382      22.95192118 
Au      18.22799937      16.13532651      11.27836373 
Au      16.30597317      16.08580669      23.21942890 
Au      21.32323419      16.16036674      21.70136234 
Au      13.19417041      16.33816264      12.76443623 
Ag      23.24114028      16.41020571      15.53966994 
Ag      11.26927910      16.44481030      18.93354233 
Ag      22.39851800      13.65187695      15.81280101 
Ag      12.04272630      13.66776121      18.52744787 
Au      15.01158028      22.75679592      18.09416530 
Au      19.68002464      22.72802494      16.48865115 
Ag      17.70593715      12.25528454      12.89187240 
Au      16.76318267      12.25079560      21.42631927 
Au      20.11474945      14.08379431      12.43933805 
Au      14.39623230      14.03902906      21.98442488 
Au      21.86144690      20.95919962      15.86992985 
Au      12.78130885      21.00226357      18.60331651 
Au      13.66862360      16.95735017      22.32898824 
Au      20.88591364      17.00178447      12.12803232 
Ag      22.35588742      19.80190642      19.85351790 
Ag      12.24938617      19.96744409      14.75577202 
Au      20.02896568      21.60484064      20.46111103 
Au      14.58923395      21.79381309      14.17671373 
Au      15.79415794      10.81763766      17.42127023 
Ag      18.70020847      10.73067065      16.81720844 
Au      22.11845573      13.97632016      19.86780154 
Ag      12.35154937      14.11901247      14.48951758 
Ag      17.10226394      21.66116449      21.46011325 
Au      17.58615990      21.74830921      13.17126461 
Ag      19.70288970      12.03781021      20.54221334 
Ag      14.73662322      12.14933308      13.82782961 
Au      23.19603316      16.74533859      19.33904916 
Au      11.30371827      16.85452944      15.11718449 
Au      20.06062466      20.07323877      12.49739577 
Au      14.58680853      20.03525798      22.07547830 
Au      20.72171134      23.11704088      13.58293798 
Au      14.00300679      23.01269097      21.01634072 
Ag      24.57709190      14.44507318      17.82704742 
Au       9.75376521      14.42809352      16.69441575 
Au      17.36835560      24.93102094      17.35169099 
Ag      21.65158043      10.82329588      14.81602118 
Au      12.89611847      10.70789770      19.62520821 
Au      16.15807527       9.61996913      13.69264270 
Au      18.27289862       9.48015823      20.46579754 
Au      10.37578982      18.14347579      21.18978189 
Au      24.20083219      18.16960500      13.34050208 
Ag      24.49455235      20.21627310      16.89608509 
Ag      10.09187813      20.23124650      17.64732357 
Au      23.69290562      18.28398675      22.12448553 
Ag      10.89959707      18.45291715      12.49918548 
S      19.57717423       9.66039490      14.63578341 
S      14.96160478       9.59066784      19.51065230 
Ag      14.73031712      18.64302770      24.71601791 
Ag      19.82809229      18.72098770       9.84743219 
Au      18.30037019      13.17890151      10.01990964 
Au      16.14575672      13.10839795      24.40266528 
Au      19.33628783      21.87248571      23.48547715 
Au      15.34492367      22.06669483      11.12238491 
S      18.65003646      23.91865911      12.79376841 
S      16.03209547      23.88833845      21.83671970 
S      24.11534026      12.64552789      19.39144986 
S      10.33537789      12.79272832      15.09766795 
Au      12.63547732      13.34502819      11.60920800 
Au      21.82273206      13.06565503      22.72544170 
S       8.90444903      15.98715734      18.24230617 
S      25.57337048      15.99237690      16.27533489 
S      11.32772267      17.01363679      23.04551377 
S      23.25262733      17.08481052      11.45875178 
S      22.90595747      22.53236489      14.25192719 
S      11.80543739      22.43433517      20.34582672 
S      22.28441801      19.26381604      23.72926135 
S      12.33721294      19.49724486      10.87239114 
S      19.07169798       8.72808948      18.40499299 
S      15.35549750       8.90631103      15.76916910 
S      15.96439557      13.23237143       9.69740666 
S      18.49761587      13.09733185      24.65647300 
S      18.40750910      20.25212735      24.91503317 
S      16.19548757      20.41076191       9.66609804 
S      24.30279948      21.20832818      19.11025290 
S      10.22145307      21.25175713      15.43655815 
S      15.01837647      25.12368236      17.44296105 
S      19.72194509      25.06659813      17.25718907 
S      16.94026313      10.23693696      11.56142643 
S      17.48514607      10.19432948      22.57052539 
S      16.11635351      16.86155420      25.55594916 
S      18.43963162      16.96497793       8.96619453 
S      22.07642727      15.12767246      23.83738726 
S      12.43422699      15.45211700      10.57388730 
S      23.76639380      11.94374880      14.65116463 
S      10.87608538      11.90048720      19.86498801 
S      13.76881819      13.13730820      24.18117911 
S      20.67275901      13.12619773      10.26894219 
S      21.65180334      10.93535173      21.74409702 
S      12.76063003      11.19965844      12.54859488 
S      20.68092657      23.29198150      22.12006072 
S      14.04187002      23.49347331      12.51610745 
S      25.15313236      16.99903472      20.76598159 
S       9.32776856      17.07056444      13.71931569 
S      13.75266694      20.82278450      24.25396377 
S      20.86442556      20.87710628      10.31200863 
S      25.58531452      19.28418780      14.90482618 
S       9.00432009      19.29795205      19.64393005 
C      18.90873959      14.32341555      25.95304617 
C      15.61383791      14.51469127       8.43491753 
C      23.58155719      22.88352419      18.90264606 
C      10.87408750      22.95310537      15.67093106 
C      20.89018294       8.58822181      18.61686432 
C      13.52732372       8.89189600      15.59781653 
C      10.72305122      15.28927005      22.90536321 
C      23.83749572      15.35068851      11.57052769 
C       8.10278289      15.00382355      19.56843373 
C      26.38683555      14.99105353      14.96876638 
C      22.90839055      20.97935702      23.91439771 
C      11.75251592      21.23462877      10.77889183 
C      14.71725615      26.19130877      18.90676817 
C      20.03759182      26.18978326      15.83811190 
C      23.88107833      15.30829793      24.11653383 
C      10.63335848      15.68144885      10.30099768 
C      19.57810635      15.88345096       8.01578270 
C      14.95552718      15.77917134      26.47864696 
C      19.72815199      24.79742717      21.68388454 
C      15.02736896      24.96870008      12.97785974 
C      21.16298914      11.38845370      10.59027883 
C      13.21491618      11.42128320      23.84651672 
C      24.86245438      11.14627245      15.89579577 
C      19.94667888       7.88713333      14.98422610 
C      14.59886458       7.84845737      19.06447183 
C      26.33128237      18.12944258      19.93112630 
C       8.13916597      18.12774178      14.63550248 
C      18.90009069      24.14209677      10.99172424 
C      15.73381513      24.12085029      23.63204217 
C      23.52218441      23.97806201      15.19887992 
C      11.16599197      23.93037392      19.49585270 
C      17.45165665      21.21512380       8.60163847 
C      21.03363055       9.86507171      23.10145295 
C      13.34409658      10.14276536      11.16514385 
C      11.92484184      20.68869846      24.17593702 
C      22.69156077      20.71890167      10.30857017 
C       9.10582245      13.02820200      13.75463414 
C      18.31222949       9.07508394      11.20407311 
C      16.05942515       9.12201054      22.98089997 
C       8.48395936      20.79085744      20.57510006 
C      26.13927580      20.77694552      13.99300224 
C      17.18310550      21.10735866      25.98058929 
H      16.69047263      20.33412381      26.58379869 
H      16.42924848      21.64324005      25.39725585 
H      17.71617100      21.80409672      26.63696973 
C      25.28035109      12.90402667      20.78538036 
H      26.23319146      12.42900567      20.52229316 
H      24.85574733      12.42173476      21.67469998 
H      25.44292701      13.96998954      20.97821211 
C       9.71272722      11.09996368      18.68680182 
H       8.83140715      11.74805373      18.60757815 
H       9.42048189      10.12368315      19.08860737 
H      10.15425449      10.98592727      17.69212747 
H      26.63274860      15.66355421      14.13744549 
H      25.73203979      14.18830162      14.60981976 
H      27.31020100      14.56303191      15.37524993 
H      26.65709320      17.64902081      19.00096635 
H      27.18669032      18.26886960      20.60275568 
H      25.87443618      19.09964515      19.71352521 
H      26.65239383      20.46042496      13.07789677 
H      26.84570038      21.31443536      14.63719095 
H      25.29334497      21.42800791      13.74202761 
H      24.33091099      23.53913593      18.44539087 
H      23.31829493      23.26460928      19.89632108 
H      22.67831030      22.85472700      18.28114791 
H      23.66707771      24.81600446      14.50743690 
H      24.48436324      23.69756741      15.64540887 
H      22.81995631      24.25848762      15.99038608 
H      20.19254714      25.23726803      20.79326552 
H      19.79823106      25.49765860      22.52447327 
H      18.67808797      24.56618109      21.47413423 
H      21.11470832      26.17625077      15.63352029 
H      19.72880953      27.20124255      16.12573471 
H      19.49395976      25.86709801      14.94485795 
H      17.90988371      24.20123382      10.52305571 
H      19.47173094      23.30737542      10.56957072 
H      19.44415301      25.08114097      10.83579048 
H      15.05269433      27.20604794      18.66417225 
H      15.24335094      25.81723055      19.79086411 
H      13.63786042      26.19527446      19.09964273 
H      14.98982363      25.67613497      12.14118881 
H      16.06662221      24.70644425      13.20268218 
H      14.56043740      25.41488325      13.86399579 
H      10.20288327      23.67084349      19.03894568 
H      11.86058114      24.26896724      18.72047835 
H      11.01986628      24.71978428      20.24209826 
H      16.93834416      21.92904076       7.94707557 
H      17.91784735      20.42613429       7.99780654 
H      18.22138874      21.72741566       9.18533643 
H      23.04224617      20.94526613       9.29449064 
H      23.01345188      19.71070394      10.58697750 
H      23.10532045      21.44702707      11.01573572 
H      23.34238953      14.78688819      10.77084998 
H      23.58141045      14.90691273      12.53918365 
H      24.92318063      15.34145115      11.42263630 
H      19.83921860      16.40529670       7.08761246 
H      19.05379519      14.94704681       7.78448766 
H      20.48687391      15.65287018       8.57933444 
H      21.03910719      10.81235545       9.66613111 
H      20.56623019      10.94804698      11.39491048 
H      22.21959593      11.39549140      10.88362188 
H      18.79177934       9.41373089      10.27807224 
H      17.89431587       8.07355412      11.05321474 
H      19.03954261       9.06189946      12.02388564 
H      13.23528809       7.97332980      15.07559235 
H      13.16737017       9.76469619      15.04211226 
H      13.08840764       8.90603307      16.60323628 
H      12.49471578       9.94800731      10.50112302 
H      13.70755775       9.20394169      11.60026457 
H      14.15970781      10.61576711      10.60929014 
H      15.85600988      14.10267307       7.44871330 
H      16.19379912      15.42774858       8.61303118 
H      14.54206833      14.74188938       8.49070168 
H       9.48389246      12.49311621      12.87474578 
H       8.97570621      14.09056538      13.51991091 
H       8.14879188      12.59738990      14.06982382 
H      10.31937321      14.99476010       9.50650871 
H      10.48067934      16.71945196       9.97897958 
H      10.05635458      15.49025820      11.21048073 
H       7.25253676      18.24437179      14.00056255 
H       8.55915709      19.11404583      14.85609636 
H      10.78502597      21.23815518      10.26352425 
H      12.48559111      21.81096944      10.20062227 
H      11.64160527      21.68153921      11.77196636 
H      11.11551024      23.36505670      14.68416402 
H      11.78073389      22.94958280      16.28734299 
H      10.10025160      23.56747211      16.14454963 
H      21.00324072       7.66014985      14.81481762 
H      19.33316141       7.29410675      14.29455817 
H      19.66364732       7.63890931      16.01412379 
H      25.19847725      10.18393658      15.49389655 
H      24.35764597      10.99603752      16.85464472 
H      25.72906775      11.79984788      16.05405379 
H      24.05673042      16.32887139      24.47894306 
H      24.45118083      15.14520087      23.19756431 
H      24.18232685      14.58056867      24.87884668 
H      19.98424002      14.52744709      25.88017940 
H      18.67736393      13.87565294      26.92664250 
H      18.34298714      15.25305855      25.82187078 
H      15.46544407      14.83184460      26.69680447 
H      14.04883411      15.56948876      25.90369318 
H      14.69415283      16.28892995      27.41321364 
H      12.14832837      11.46646693      23.59573021 
H      13.35756222      10.81897158      24.75090542 
H      13.76171194      10.98499701      23.00509244 
H      16.44000601       8.11257822      23.17524552 
H      15.33611483       9.10177379      22.15846851 
H      15.59844267       9.52411342      23.89050593 
H      20.64397156       8.94604873      22.64663834 
H      20.23197983      10.35011281      23.66713265 
H      21.87386706       9.62976182      23.76425337 
H      15.56408977       7.36525438      18.86931553 
H      13.96711164       7.76635970      18.17596630 
H      22.19683411      21.51620633      24.55434037 
H      22.98565883      21.49139195      22.95028294 
H      23.89104714      20.94378142      24.39741151 
H      11.55085281      21.44939305      23.48090357 
H      11.53468941      20.87981387      25.18273631 
H      11.60236678      19.69703383      23.84361474 
H      15.16776463      25.04768591      23.77928222 
H      16.71090836      24.20176167      24.12391352 
H      15.17326961      23.27624000      24.04931328 
H       7.78882825      21.35139207      19.93834334 
H       9.34545412      21.41859041      20.83194711 
H       7.19012599      14.54459231      19.17249002 
H       7.84265399      15.70209950      20.37391718 
H       8.77424582      14.22940815      19.95530208 
H       9.63901702      15.29030507      23.06480929 
H      11.22156111      14.70480559      23.68801286 
H      10.96493388      14.86170574      21.92561210 
H      21.33463792       8.47015377      17.62071537 
H      21.11108684       7.70201432      19.22259154 
H      21.30852112       9.47750081      19.10144680 
H      14.10618978       7.36645108      19.91645133 
H       7.96550025      20.47537564      21.48754750 
H       7.86531055      17.61921271      15.56718860 
