322
Properties=species:S:1:pos:R:3 i=269 optimized=T E=-4361.9301706785 pbc="F F F" jobid=102_44-Ag-50_0-000010-PBE
Ag      16.82167639      17.02780276      15.89138024 
Ag      17.65742914      16.98792929      18.70513663 
Ag      18.59676478      14.96011071      16.87409412 
Ag      15.88960937      14.95016454      17.69526992 
Au      19.50135091      17.72955070      16.63194545 
Ag      14.99395843      17.75904237      17.98570491 
Au      17.23363264      19.50537351      17.31723847 
Au      17.81305473      15.03974211      13.96683847 
Ag      16.66366325      14.96971745      20.58176169 
Ag      18.21280510      19.51609182      20.16158722 
Ag      16.31084611      19.59191177      14.45979222 
Ag      19.42434494      14.94354825      19.85328580 
Ag      15.04119038      15.03609571      14.72334214 
Au      18.67610203      17.88725844      13.67285253 
Ag      15.84021460      17.81384374      20.89319912 
Au      20.40146987      17.71684347      19.47739824 
Ag      14.09505072      17.79602583      15.15681418 
Ag      21.38488276      15.70576808      17.65689706 
Ag      13.15881629      15.77812548      16.93914562 
Au      13.94587330      15.69705342      19.80132582 
Au      20.55965870      15.74240082      14.74864812 
Au      15.47284428      20.32767836      19.43676342 
Au      19.06817153      20.33366088      15.20548427 
Au      20.03583872      20.37717195      18.01697676 
Ag      14.48507939      20.35350065      16.61917146 
Ag      17.62068004      12.78968446      18.76460281 
Ag      16.84433421      12.79092900      15.74538313 
Au      15.96922414      17.12782142      12.98650681 
Au      18.50079986      17.00308091      21.59936126 
Au      19.63948487      12.97131214      15.11462196 
Ag      14.82770893      12.91927474      19.42895633 
Au      13.12683231      18.50612588      20.04705524 
Au      21.39968604      18.52319901      14.52873412 
Au      20.35863876      12.99717956      17.92351407 
Au      14.14068843      12.99937511      16.61222160 
Au      22.22217103      18.53877178      17.30158875 
Ag      12.31723749      18.62096164      17.33466586 
Ag      17.76205480      22.06655390      18.65709573 
Ag      16.80170836      22.05743876      15.98086047 
Au      20.46980816      19.18412016      21.99254308 
Au      14.05689179      19.29789924      12.69695470 
Ag      18.72040987      14.30250085      22.60483158 
Ag      15.74368166      14.41402547      11.98063899 
Au      17.37092387      19.35071081      11.66545474 
Au      17.24468426      19.22741017      22.94308004 
Ag      18.20487385      16.15761718      11.30148346 
Ag      16.28765511      16.13649816      23.28035756 
Ag      21.33368506      16.30023447      21.78212612 
Ag      13.14543184      16.40832241      12.80039976 
Au      23.18006478      16.41295259      15.50705848 
Ag      11.30132240      16.48625421      19.01847159 
Ag      22.37674906      13.66755348      15.89531719 
Au      12.14683707      13.73721378      18.61288681 
Au      14.98788302      22.80025874      18.10615602 
Ag      19.60016590      22.82694421      16.43169929 
Ag      17.71957802      12.38487558      12.94184500 
Ag      16.78229707      12.29345418      21.52717116 
Au      20.12864915      14.20938074      12.47644643 
Au      14.42673620      14.09919131      22.06892184 
Au      21.82291964      21.06120569      15.86011789 
Au      12.75298799      21.10254196      18.86589288 
Au      13.58033684      16.93276798      22.41261472 
Ag      20.89986135      17.12030175      12.07172358 
Ag      22.30105100      19.89299347      19.83502651 
Ag      12.19723265      19.94487364      14.81615992 
Au      20.01617971      21.74844839      20.42654511 
Ag      14.54424942      21.80300875      14.18601041 
Ag      15.76901005      10.80292493      17.60131944 
Ag      18.75287402      10.81588491      16.93268618 
Au      22.09529688      14.12999777      19.97163733 
Au      12.35087321      14.27821029      14.62996460 
Au      17.01986684      21.75142577      21.46006959 
Au      17.53927277      21.82545853      13.22760524 
Ag      19.74990356      12.21839507      20.68384714 
Au      14.75872960      12.31676589      13.83533994 
Au      23.17042671      16.91709588      19.51657213 
Ag      11.32756596      16.98894653      15.16112447 
Ag      20.08211422      20.29264772      12.61012722 
Au      14.49381805      20.17125899      22.03924108 
Au      20.65128770      23.30304789      13.58477816 
Ag      14.02291683      23.01227211      21.00655127 
Au      24.70625493      14.44231975      17.81032023 
Ag       9.92939558      14.67525712      16.68087790 
Ag      17.34355109      24.78196702      17.34812494 
Au      21.35681565      10.60347402      14.84674517 
Au      12.98708022      10.65023589      19.59908403 
Ag      16.35228569       9.83861817      13.86794265 
Au      18.30277848       9.70641055      20.76913297 
Ag      10.47171735      18.25207740      21.27811186 
Au      24.12159751      18.30216896      13.36738759 
Au      24.51812423      20.36280614      16.95831899 
Ag      10.08909383      20.45699717      17.82298195 
Ag      23.69271036      18.40214783      22.10764254 
Au      10.72085506      18.52944517      12.56333559 
S      19.29709010       9.45947546      14.78263909 
S      15.04394729       9.54523253      19.78284648 
Ag      14.66205322      18.64812756      24.64209754 
Au      19.93028437      18.92620660       9.82620075 
Au      18.26635416      13.33645762      10.02580469 
Ag      16.20598622      13.16260932      24.39814034 
Au      19.22625439      21.94847473      23.49504219 
Au      15.27641554      22.14837629      11.25815841 
S      18.55833875      24.03779638      12.79969793 
S      16.08902921      23.98575912      21.85455214 
S      24.12853400      12.83618376      19.43337541 
S      10.30189166      12.98408849      14.97049145 
Ag      12.75733304      13.50576639      11.72510535 
Au      21.82234055      13.35926836      22.87701359 
S       8.95874639      16.20846060      18.27818916 
S      25.48354884      16.01666752      16.24009917 
S      11.27976201      17.06605943      23.25390906 
S      23.33141519      17.15616888      11.44652157 
S      22.81083053      22.72721455      14.31849114 
S      11.67778961      22.74672238      20.37453433 
S      22.20757109      19.37501345      23.73140725 
S      12.21013663      19.56105144      11.04981904 
S      19.07608468       8.97156534      18.68587695 
S      15.50465184       8.92560074      15.90817661 
S      15.93373776      13.42551691       9.68114274 
S      18.56948776      13.22247583      24.85257710 
S      18.31165111      20.28991227      24.90019333 
S      16.15239803      20.46689673       9.85095797 
S      24.28046872      21.27703931      19.13950235 
S      10.33580418      21.41712413      15.60477940 
S      14.94597367      25.13778798      17.41889876 
S      19.72563281      25.13809907      17.30430943 
S      17.01548179      10.39181618      11.60948373 
S      17.52571084      10.30433263      22.91849865 
S      15.88170275      16.83967324      25.65731856 
S      18.67144831      17.11275448       9.01766139 
S      22.04299774      15.41001093      24.01189860 
S      12.44581806      15.56912000      10.54502655 
S      23.44762973      11.70087626      14.77938538 
S      10.93206983      11.82348874      19.55850092 
S      13.77639198      13.07723741      24.17565206 
S      20.63615475      13.30185278      10.28673446 
S      21.71603345      11.19986948      21.94321650 
S      12.87976604      11.26847803      12.61991266 
S      20.59802657      23.36643823      22.16496143 
S      13.94544577      23.62086278      12.56160213 
S      25.23055207      17.03306022      20.82450386 
S       9.20365353      17.26088103      13.85574689 
S      13.69329678      20.86128185      24.22255068 
S      20.92993710      20.99813066      10.37622488 
S      25.46867900      19.44341864      14.97043495 
S       9.01085142      19.46205365      19.76639437 
C      18.90535717      14.52214027      26.10507821 
C      15.61001531      14.76199558       8.46530422 
C      23.56244849      22.95253563      18.94091113 
C      11.11234339      23.06793546      15.80963841 
C      20.90160206       8.85761500      18.85751747 
C      13.68097234       8.84309251      15.69059040 
C      10.64491218      15.35173420      23.08313600 
C      23.88198398      15.42340959      11.68959209 
C       8.14040979      15.15624252      19.54404443 
C      26.29463973      15.04447938      14.91230179 
C      22.78473284      21.10673417      23.92111005 
C      11.64081074      21.30324436      10.98070021 
C      14.72696793      26.21281440      18.89594379 
C      19.93574382      26.32589682      15.91222995 
C      23.84744480      15.59647172      24.30043932 
C      10.63063564      15.71323750      10.29223416 
C      19.85464280      16.09271241       8.05582652 
C      14.58870723      15.80951081      26.45831860 
C      19.68927613      24.90352763      21.75658082 
C      14.94335159      25.08225042      13.04411946 
C      21.15848324      11.57211810      10.60245191 
C      13.27986546      11.36439346      23.73949791 
C      24.45230115      10.86725538      16.07317423 
C      19.63376758       7.71982332      15.26005103 
C      14.74870211       7.79288886      19.31880444 
C      26.39272971      18.11462472      19.90315964 
C       8.10710354      18.43057234      14.75083860 
C      18.78241459      24.26808469      10.99400033 
C      15.82073282      24.17360229      23.65949687 
C      23.38266958      24.15601031      15.31715218 
C      11.23464331      24.25085637      19.42103222 
C      17.33079867      21.27966761       8.70616621 
C      21.12938225      10.15827059      23.33605150 
C      13.50206069      10.26440740      11.21642288 
C      11.86275996      20.74087185      24.19844437 
C      22.75291967      20.80009849      10.38949575 
C       9.13198897      13.37188964      13.61235169 
C      18.38642999       9.23925266      11.21235039 
C      16.18327818       9.10874063      23.28258984 
C       8.48211689      20.93512015      20.72618211 
C      26.05267824      20.92604934      14.06597760 
C      17.05941771      21.09999412      25.96447048 
H      16.56225463      20.30713893      26.53783967 
H      16.31510219      21.64931292      25.38158534 
H      17.58111779      21.78142792      26.64643771 
C      25.32657218      13.10172681      20.79500852 
H      26.28291539      12.64989052      20.50687118 
H      24.92263043      12.59492833      21.68036559 
H      25.46353155      14.16987010      20.99758005 
C       9.98487960      11.05317311      18.18683548 
H       9.12237347      11.69603600      17.97278349 
H       9.64083881      10.06900137      18.52493401 
H      10.58996897      10.95234963      17.28139832 
H      26.49576848      15.73305368      14.08215093 
H      25.65602366      14.22318867      14.57033349 
H      27.23935336      14.64861855      15.30234733 
H      26.66948763      17.61171954      18.96947704 
H      27.28124246      18.25065592      20.53132418 
H      25.95152605      19.09039409      19.67887988 
H      26.55663667      20.58520552      13.15415368 
H      26.76865862      21.45322955      14.70727500 
H      25.21725878      21.58716871      13.80801873 
H      24.30501626      23.60795647      18.47317359 
H      23.32061014      23.32496195      19.94355194 
H      22.64643786      22.92227960      18.33911855 
H      23.56597330      25.00211693      14.64509788 
H      24.31989960      23.86026356      15.80454356 
H      22.64264398      24.42897784      16.07735976 
H      20.13296001      25.32371893      20.84618512 
H      19.82077040      25.60148461      22.59190508 
H      18.62247125      24.70830979      21.59531930 
H      21.00484187      26.38911238      15.67724528 
H      19.57487065      27.30921433      16.23356816 
H      19.39458227      26.00288168      15.01740854 
H      17.78418241      24.30784070      10.54037829 
H      19.36202271      23.44473047      10.56237406 
H      19.30576776      25.21729912      10.82962519 
H      15.04422472      27.22599790      18.62294982 
H      15.31293206      25.85473569      19.74866455 
H      13.66429473      26.22188129      19.16486015 
H      14.94479393      25.79542404      12.21195973 
H      15.97227136      24.80564922      13.29751882 
H      14.46142623      25.53617469      13.91831126 
H      10.25894315      24.08621741      18.94787035 
H      11.98086303      24.46634757      18.64910157 
H      11.16280435      25.09471450      20.11738262 
H      16.76087107      21.94500931       8.04745315 
H      17.80838302      20.48607239       8.11813201 
H      18.09891881      21.84459248       9.24089791 
H      23.10743760      20.68178984       9.35986123 
H      23.06643321      19.94079533      10.99123184 
H      23.16939246      21.71650219      10.82468460 
H      23.42159249      14.82264253      10.89593171 
H      23.56106431      15.03785366      12.66470873 
H      24.97321459      15.37952701      11.60443040 
H      20.15055877      16.65341959       7.16235238 
H      19.33219689      15.17211289       7.76639008 
H      20.73893369      15.83149983       8.64474890 
H      21.04678787      10.99958626       9.67457393 
H      20.56949705      11.11654913      11.40391368 
H      22.21400031      11.59852170      10.89783139 
H      18.88670665       9.60034505      10.30684215 
H      17.95539930       8.25055531      11.01680266 
H      19.10131991       9.16944137      12.03969939 
H      13.44089998       7.95038221      15.10128502 
H      13.29753947       9.73129076      15.17584815 
H      13.20866120       8.76595402      16.67833553 
H      12.63709565      10.00785281      10.59315193 
H      13.96188458       9.35198695      11.61416471 
H      14.24399661      10.80613092      10.62122373 
H      15.84209600      14.38089954       7.46445858 
H      16.20986652      15.65470751       8.67333128 
H      14.54363315      15.01053165       8.53515971 
H       9.52043337      12.92301553      12.68958951 
H       9.00639515      14.45240103      13.48306933 
H       8.16450425      12.91933257      13.86130433 
H      10.33115011      15.00999352       9.50699514 
H      10.41790712      16.74039196       9.97145994 
H      10.07119298      15.50440990      11.20857293 
H       7.23911242      18.63989873      14.11533049 
H       8.62131262      19.36756341      14.98603805 
H      10.67024033      21.32299803      10.47195681 
H      12.38058522      21.86892103      10.40046474 
H      11.54618524      21.74198774      11.97905423 
H      11.39397131      23.43955397      14.81728736 
H      12.00790200      23.01082341      16.44015303 
H      10.38138653      23.74767188      16.26134194 
H      20.35152577       7.27597716      14.56238729 
H      18.67451369       7.19091672      15.19428996 
H      20.00556408       7.64663823      16.28684749 
H      24.73253158       9.87110426      15.71363358 
H      23.91152781      10.78830369      17.02084508 
H      25.35281839      11.47323250      16.23064416 
H      24.01129216      16.61100086      24.68564092 
H      24.42463280      15.45901067      23.38121638 
H      24.15999455      14.86096919      25.04999479 
H      19.95176196      14.83315930      26.00083215 
H      18.74680823      14.08289874      27.09677432 
H      18.24588689      15.38849931      25.97807695 
H      15.04756277      14.86339894      26.77225296 
H      13.75997724      15.59499483      25.77668863 
H      14.21363066      16.34423879      27.33806406 
H      12.23808853      11.38944563      23.39971842 
H      13.35886479      10.74117084      24.63779265 
H      13.90615071      10.95335333      22.94167408 
H      16.63213707       8.12432499      23.45653718 
H      15.46776851       9.05493952      22.45452550 
H      15.68175892       9.44733362      24.19687585 
H      20.75010379       9.22094727      22.91141506 
H      20.32534253      10.64793767      23.89513114 
H      21.97980778       9.95620733      23.99670634 
H      15.65445486       7.24579440      19.60980630 
H      14.60801126       7.68913415      18.23731466 
H      22.04057288      21.65130483      24.51562995 
H      22.91135459      21.60568759      22.95555975 
H      23.74278153      21.08441307      24.45348822 
H      11.46883110      21.47086450      23.48218933 
H      11.50790933      20.98245484      25.20775928 
H      11.52628626      19.73465982      23.92937572 
H      15.31941373      25.13443712      23.82794407 
H      16.79630735      24.17210924      24.16100504 
H      15.19607312      23.36245043      24.05147505 
H       7.71424133      21.46414216      20.14913149 
H       9.32779878      21.60763870      20.91850307 
H       7.21884937      14.74524366      19.11628550 
H       7.88978569      15.79457191      20.40032475 
H       8.78996187      14.33815800      19.87320513 
H       9.56997282      15.36559013      23.29739945 
H      11.16552815      14.71891457      23.81174712 
H      10.82197832      14.95939888      22.07568447 
H      21.32810390       8.74780525      17.85219716 
H      21.14669676       7.97606711      19.46056715 
H      21.31766111       9.75467419      19.32978274 
H      13.88635087       7.39704885      19.86403808 
H       8.04969379      20.59863930      21.67534171 
H       7.78497348      17.94209531      15.67808549 
