322
Properties=species:S:1:pos:R:3 i=247 optimized=T E=-4361.9464994069 pbc="F F F" jobid=102_44-Ag-50_0-000001-PBE
Au      16.90633330      17.04552688      15.92316729 
Ag      17.72279414      17.02242979      18.76723700 
Ag      18.67863773      14.94707316      16.94998799 
Au      15.93780330      14.94872723      17.73125893 
Au      19.55974761      17.80051456      16.66357503 
Au      15.07230076      17.80076062      18.00668769 
Ag      17.30958828      19.57011508      17.37589518 
Ag      17.90602199      15.10126540      14.00354410 
Ag      16.66390950      15.01826822      20.61201046 
Au      18.24306247      19.53425325      20.31175936 
Ag      16.39903549      19.61271114      14.52541610 
Au      19.45867058      14.96242879      19.89018561 
Ag      15.12413139      15.02788899      14.77294675 
Au      18.72469916      17.91503282      13.74234646 
Ag      15.89184237      17.84536771      20.88879062 
Au      20.42474464      17.75884050      19.57494879 
Au      14.17978405      17.80774375      15.07565598 
Ag      21.36563459      15.72745954      17.68311581 
Au      13.17697675      15.75173854      16.91442962 
Ag      13.95805858      15.73729491      19.78907202 
Ag      20.59378212      15.82247022      14.82948008 
Au      15.41492954      20.35509484      19.49649493 
Au      19.19204093      20.39758229      15.26137174 
Au      20.07041007      20.38172363      18.11531741 
Au      14.56430838      20.43221164      16.64368122 
Ag      17.65381325      12.78770135      18.81459766 
Au      16.89106766      12.82999122      15.78717813 
Ag      16.06066021      17.13164550      13.00911043 
Ag      18.55299521      17.04449488      21.69962570 
Ag      19.68089143      12.99769997      15.11118837 
Ag      14.80481873      12.95313896      19.46094371 
Au      13.14257494      18.49603787      20.04146377 
Ag      21.49268116      18.58840863      14.62423454 
Ag      20.42942047      12.93111026      17.94271788 
Ag      14.14889990      12.99251426      16.63342483 
Au      22.23768088      18.58961050      17.35735446 
Au      12.36923827      18.61923074      17.28367367 
Au      17.74151757      22.06267928      18.74884971 
Ag      16.86272786      22.14406720      16.05630825 
Ag      20.47177265      19.33335141      22.10131533 
Ag      14.20822314      19.38607700      12.62312589 
Au      18.68632206      14.31739570      22.58756695 
Ag      15.79933232      14.46301518      12.03120252 
Au      17.30917708      19.37982683      11.72455878 
Ag      17.19545098      19.23557663      23.04317550 
Ag      18.30186713      16.31854120      11.30282702 
Au      16.29332480      16.22491351      23.28425690 
Au      21.38726394      16.38212136      21.83724969 
Ag      13.26848239      16.41037749      12.77631689 
Ag      23.30776399      16.50259547      15.69938419 
Ag      11.25727481      16.55665646      18.95388840 
Au      22.32847113      13.78174031      15.88969078 
Au      12.13907830      13.77484736      18.54802708 
Ag      14.96866033      22.81624822      18.21833773 
Ag      19.63387147      22.81270999      16.64314053 
Au      17.77839116      12.46444169      13.01154494 
Au      16.68621056      12.30986772      21.52660290 
Ag      20.13229723      14.28275604      12.51918262 
Au      14.43284958      14.20290248      22.08935435 
Ag      21.90643598      21.13617297      15.97934557 
Ag      12.68803469      21.10627581      18.79459459 
Ag      13.64802348      17.03782790      22.45153834 
Ag      20.96136986      17.15821610      12.22424063 
Ag      22.33081239      19.90822442      19.92253003 
Ag      12.30719555      19.97441659      14.75350195 
Ag      20.01239169      21.81233016      20.52477605 
Au      14.61314673      21.85033085      14.26095852 
Ag      15.77624934      10.77569190      17.52707325 
Au      18.67702481      10.88027856      16.95184204 
Au      22.12942676      14.13276869      19.96660143 
Ag      12.44610027      14.17792246      14.56404939 
Au      17.01846145      21.73863747      21.54196742 
Au      17.61065067      21.85601737      13.29803933 
Au      19.77814010      12.23905685      20.70859416 
Ag      14.83158175      12.28305031      13.88758962 
Au      23.19699745      16.91130364      19.49059613 
Au      11.41274713      16.92492386      15.08927434 
Au      20.12508963      20.19073032      12.61940596 
Au      14.43333729      20.08998654      22.10157325 
Ag      20.52442191      23.02024111      13.73814885 
Ag      14.01191433      22.96111325      21.10851657 
Ag      24.56394223      14.57250220      17.93495527 
Ag       9.98269673      14.59688026      16.57867953 
Au      17.32670094      24.90764335      17.45518087 
Au      21.44100984      10.66983614      14.87376882 
Au      12.96871670      10.70853842      19.58874732 
Ag      16.42686228       9.80096447      13.83266169 
Au      18.31658820       9.67341740      20.61948532 
Au      10.40547535      18.32673365      21.15361897 
Au      24.22173137      18.35888009      13.57293676 
Au      24.53133195      20.44477469      17.12133683 
Au      10.06160706      20.42455146      17.62492153 
Au      23.83922045      18.50552977      22.12414558 
Au      10.95302565      18.58873189      12.39734308 
S      19.37888617       9.54770605      14.77690258 
S      14.99246267       9.53496905      19.65366715 
Ag      14.68507864      18.78194407      24.81685819 
Ag      19.98425674      18.95075397       9.91793314 
Au      18.49683713      13.52669173      10.05697563 
Au      16.11137049      13.18470856      24.51298838 
Au      19.30789474      21.89808620      23.54392882 
Ag      15.37461073      22.06099915      11.32319853 
S      18.50245522      24.08727321      12.85280963 
S      16.06114140      23.93369306      21.99241690 
S      24.16832906      12.86632507      19.62985322 
S      10.41063860      12.83224070      14.97283776 
Ag      12.90346586      13.47251750      11.68943688 
Ag      21.66222720      13.40394471      22.88721066 
S       8.94580477      16.08992530      18.16533489 
S      25.66769383      15.99521262      16.32469087 
S      11.21689599      17.18527950      23.06448712 
S      23.39497322      17.25471646      11.65260578 
S      22.85586728      22.76241299      14.34901272 
S      11.70484153      22.71366900      20.43392034 
S      22.41007670      19.50037177      23.69949141 
S      12.41422394      19.60453011      10.86006181 
S      19.14708091       8.95733685      18.55355893 
S      15.48325690       8.87815328      15.81539726 
S      16.15511372      13.50988343       9.73351291 
S      18.46052174      13.23478887      24.79500364 
S      18.40192474      20.26049265      24.98977420 
S      16.22583146      20.40736908       9.77806240 
S      24.20755514      21.44706443      19.24537159 
S      10.39496846      21.43289734      15.50562868 
S      14.97997006      25.18852164      17.53277817 
S      19.67490927      25.17729037      17.36166213 
S      17.09357424      10.54686015      11.63157478 
S      17.46831664      10.29185798      22.73584283 
S      15.98358475      16.95025949      25.65340061 
S      18.64673178      17.21959510       8.96272584 
S      21.96895978      15.50502766      24.03218945 
S      12.61511119      15.55205353      10.53606794 
S      23.49479811      11.83937423      14.88522633 
S      10.96335669      11.96024194      19.70183030 
S      13.74562369      13.19956277      24.24337962 
S      20.87075162      13.54844564      10.25541745 
S      21.62690275      11.16812521      21.97032785 
S      12.94244732      11.25658703      12.60423303 
S      20.64440735      23.42477504      22.29499357 
S      13.92930821      23.52855956      12.63741004 
S      25.26671794      17.16158899      20.78451993 
S       9.46242583      17.24324344      13.66513193 
S      13.67350243      20.91320362      24.27543843 
S      21.00629981      21.07628832      10.52357307 
S      25.54727159      19.51146828      15.17527535 
S       9.05372583      19.47110908      19.56482467 
C      18.82296022      14.48794514      26.08074440 
C      15.76337069      14.79364533       8.48410455 
C      23.40404806      23.06854718      18.95226255 
C      11.16326738      23.06852500      15.81358608 
C      20.97230507       8.95558446      18.74135259 
C      13.67379748       8.75378354      15.51333432 
C      10.58000757      15.47171427      22.90999655 
C      23.98858926      15.52507339      11.79392903 
C       8.14888570      15.02009802      19.42839720 
C      26.36219064      14.87378078      15.04555989 
C      23.01136120      21.22323387      23.88332590 
C      11.80198001      21.32695133      10.69872496 
C      14.74422308      26.27125649      19.00133014 
C      19.90884036      26.29430111      15.91910792 
C      23.77863386      15.64403790      24.31482348 
C      10.80392165      15.68945038      10.24846713 
C      19.77926940      16.19848568       7.93820340 
C      14.77364779      15.87695777      26.52236224 
C      19.66049019      24.93490557      21.95350909 
C      14.85412674      25.04058444      13.11127453 
C      21.43567376      11.81745192      10.49530870 
C      13.22930302      11.49232425      23.81505093 
C      24.47419676      11.05431856      16.22639447 
C      19.71267462       7.79921447      15.21699425 
C      14.61353790       7.80392290      19.17178966 
C      26.39748427      18.23754432      19.82511856 
C       8.29769557      18.32809448      14.57469082 
C      18.84296333      24.27109783      11.05876397 
C      15.77853257      24.11639465      23.79482677 
C      23.34425432      24.28455762      15.25424393 
C      11.24954830      24.26141944      19.55437753 
C      17.48920278      21.22958180       8.73080234 
C      20.96174334      10.12823098      23.32664191 
C      13.57277592      10.23021419      11.21443116 
C      11.84499380      20.75061870      24.30355401 
C      22.83368538      20.92114183      10.58301689 
C       9.25617077      13.15025826      13.57981669 
C      18.55630562       9.55086066      11.15891074 
C      16.09211271       9.14370568      23.10749082 
C       8.48292963      20.95024177      20.48431619 
C      26.09412310      21.00673006      14.26760512 
C      17.23628647      21.13883802      26.10220106 
H      16.76007197      20.37579488      26.73117074 
H      16.46556543      21.68040495      25.54656541 
H      17.80327269      21.83323621      26.73219392 
C      25.32545278      13.25444759      20.99893042 
H      26.29598038      12.80526453      20.75538910 
H      24.93188186      12.80340250      21.91824774 
H      25.44672992      14.33549306      21.12895146 
C       9.85587720      11.19867483      18.44910006 
H       8.99213133      11.86270247      18.32195791 
H       9.52446427      10.22785841      18.83462758 
H      10.35534085      11.07516184      17.48356621 
H      26.66436252      15.48636370      14.18733883 
H      25.63054877      14.12690304      14.71849699 
H      27.24359066      14.36928903      15.45762148 
H      26.80717169      17.63515224      19.00530424 
H      27.20203167      18.56661536      20.49264893 
H      25.87610763      19.10707844      19.41223830 
H      26.59341743      20.67888977      13.34856740 
H      26.80946991      21.54015865      14.90457352 
H      25.24130378      21.65483181      14.02865352 
H      24.11460168      23.73721944      18.45483688 
H      23.13322156      23.47706329      19.93375639 
H      22.49487828      22.96391700      18.34718328 
H      23.39727922      25.11911967      14.54587934 
H      24.33490476      24.11847893      15.69469150 
H      22.63167092      24.52129226      16.05154126 
H      20.10626455      25.43335902      21.08470780 
H      19.72390481      25.59157127      22.82870513 
H      18.61178240      24.69609934      21.74158364 
H      20.98696064      26.37379551      15.73510828 
H      19.50763958      27.28186260      16.17155604 
H      19.41522254      25.90462563      15.02273597 
H      17.88943834      24.30253687      10.51776848 
H      19.46257631      23.44805384      10.68423040 
H      19.37527390      25.21956784      10.91618697 
H      15.14640717      27.26435041      18.77331919 
H      15.23588259      25.85931346      19.88879248 
H      13.66571257      26.34634823      19.18487928 
H      14.66653271      25.79448903      12.33721588 
H      15.93085004      24.84719408      13.18591313 
H      14.47483259      25.39860192      14.07523999 
H      10.26709367      24.11323545      19.08986297 
H      11.97989231      24.50995827      18.77695767 
H      11.18778929      25.08057611      20.27973848 
H      16.97157634      21.92466140       8.05924455 
H      17.99141000      20.45152125       8.14188305 
H      18.22988588      21.77242473       9.32484053 
H      23.21842570      21.23359103       9.60470552 
H      23.14879761      19.89323592      10.78605101 
H      23.21479932      21.58893509      11.36436470 
H      23.52553898      14.96029798      10.97552054 
H      23.69224543      15.07941941      12.75073823 
H      25.07892287      15.51177205      11.69095322 
H      20.05491423      16.77627638       7.04889075 
H      19.23972735      15.29074007       7.64000152 
H      20.67945734      15.90520235       8.48585916 
H      21.25831402      11.24668654       9.57694348 
H      20.93071879      11.33941652      11.34041115 
H      22.51281979      11.85661189      10.69766967 
H      19.04362576      10.04121803      10.30871160 
H      18.19847117       8.56005660      10.85435240 
H      19.25483690       9.44928992      11.99652553 
H      13.47698776       7.83395905      14.95014679 
H      13.29476937       9.61294139      14.94787958 
H      13.15692718       8.70442360      16.47996564 
H      12.72830122      10.00731490      10.55236178 
H      13.97549650       9.29821944      11.62916510 
H      14.36313308      10.73815502      10.65285945 
H      15.99870063      14.38891876       7.49313990 
H      16.33432150      15.71332467       8.65676776 
H      14.68931716      15.00476974       8.55726633 
H       9.64717913      12.63581914      12.69314580 
H       9.15815687      14.22193664      13.37482796 
H       8.27391232      12.73852742      13.83930075 
H      10.52982340      15.00034876       9.44171078 
H      10.59119214      16.72207792       9.94538493 
H      10.22628359      15.45423979      11.14699620 
H       7.49100837      18.60426670      13.88570772 
H       8.79091443      19.23028090      14.94847920 
H      10.82314072      21.30476976      10.20715785 
H      12.51877188      21.86991484      10.06954830 
H      11.72139183      21.82761351      11.66819675 
H      11.43550276      23.48734045      14.83707317 
H      12.06960629      22.97586678      16.42446188 
H      10.43473092      23.71837318      16.30983896 
H      20.41195521       7.36611971      14.49400675 
H      18.74898701       7.27687486      15.16391375 
H      20.10904301       7.70618531      16.23302425 
H      24.79806012      10.06582452      15.88139349 
H      23.89806927      10.96236641      17.15174791 
H      25.34986183      11.68854091      16.41189061 
H      24.00380801      16.68453299      24.57924857 
H      24.35314809      15.36157604      23.42822089 
H      24.03676815      14.98114022      25.14919742 
H      19.88924899      14.73520179      26.00848245 
H      18.60673899      14.03808670      27.05685531 
H      18.22060577      15.39295667      25.94168701 
H      15.26520919      14.92232373      26.75048031 
H      13.88674609      15.68176352      25.91196722 
H      14.48176722      16.37996444      27.45150061 
H      12.17382858      11.53499314      23.52092530 
H      13.34043440      10.85595412      24.70038926 
H      13.81926862      11.09485821      22.98299043 
H      16.51951038       8.15323596      23.30231910 
H      15.38773153       9.09271557      22.26948658 
H      15.59232426       9.51297299      24.01062195 
H      20.53795480       9.21539709      22.89101290 
H      20.18466871      10.64689354      23.89743945 
H      21.80105972       9.87523774      23.98556373 
H      15.50822342       7.21825664      19.41824807 
H      14.42496487       7.71987559      18.09670999 
H      22.29052722      21.75354888      24.51773430 
H      23.08723690      21.73450869      22.91889695 
H      23.99213763      21.19749873      24.37084683 
H      11.42524232      21.44135375      23.56309607 
H      11.50786180      21.03147154      25.30856263 
H      11.52188863      19.72877458      24.08254400 
H      15.27340115      25.07587243      23.95957310 
H      16.75099911      24.11961152      24.30174178 
H      15.15369716      23.30384886      24.18301273 
H       7.75895300      21.47706783      19.85158564 
H       9.32461887      21.61014945      20.72946024 
H       7.25660045      14.55777310      18.99100905 
H       7.85170109      15.65773206      20.27012351 
H       8.82956065      14.24053067      19.78773844 
H       9.48963248      15.48523127      23.01347990 
H      11.02653013      14.88547966      23.72230792 
H      10.86438344      15.02667280      21.94973595 
H      21.41586103       8.94488664      17.73699631 
H      21.26357039       8.05029720      19.28684839 
H      21.31899212       9.84066953      19.28707062 
H      13.75988979       7.43211375      19.74681685 
H       7.98892961      20.60626498      21.40031930 
H       7.89615378      17.75124046      15.41647359 
