322
Properties=species:S:1:pos:R:3 i=311 optimized=T E=-4244.7538771095 pbc="F F F" jobid=102_44-Ag-19_6-000009-PBE
Au      16.84120771      16.96945188      15.77736728 
Au      17.65410748      16.93432827      18.67111016 
Au      18.56249643      14.88926192      16.81945660 
Ag      15.84481786      14.89669277      17.59138577 
Au      19.50871983      17.70325116      16.53828219 
Au      14.97856017      17.69997963      17.86781070 
Au      17.27412602      19.45414564      17.26180919 
Ag      17.88389208      14.97209592      13.90292163 
Au      16.56247383      14.95723199      20.55738628 
Au      18.26653597      19.47671854      20.13921044 
Ag      16.35749382      19.51210046      14.36728152 
Au      19.36422101      14.85114188      19.84153674 
Ag      15.07690367      14.98100625      14.59637388 
Au      18.68768401      17.84685404      13.56325448 
Au      15.86032338      17.83108645      20.83716758 
Au      20.41985024      17.61330031      19.47303141 
Au      14.11355619      17.78496363      14.95319918 
Au      21.35501895      15.61152984      17.57647957 
Au      13.11568459      15.70432615      16.75628560 
Au      13.86642368      15.68407468      19.71982174 
Ag      20.59220710      15.65977441      14.72595165 
Au      15.42746885      20.27652337      19.36665237 
Ag      19.11673466      20.25577548      15.13206063 
Au      20.07458654      20.31257565      17.94072948 
Ag      14.50916389      20.31122265      16.50472339 
Au      17.56976592      12.66123344      18.71175323 
Ag      16.82093755      12.69373562      15.64677177 
Au      16.00856090      17.05329122      12.81383525 
Au      18.52871978      16.97268534      21.69608800 
Au      19.63682840      12.92999194      15.04226315 
Au      14.72826925      12.92048734      19.30959030 
Au      13.11063005      18.47237672      19.95385570 
Au      21.41856467      18.43416017      14.47821636 
Au      20.36594616      12.89711387      17.84085006 
Au      14.07116655      12.97320780      16.46918485 
Au      22.19265812      18.45432543      17.22973612 
Au      12.30675371      18.58173799      17.17070707 
Au      17.79073228      22.03345905      18.57102470 
Au      16.83524559      21.98980248      15.90358185 
Au      20.45698911      19.22478541      21.95382292 
Ag      14.14824939      19.35343180      12.46605793 
Au      18.68967096      14.16656153      22.50511268 
Au      15.87478203      14.30966782      11.90867835 
Au      17.33538615      19.34044374      11.56704536 
Au      17.15543147      19.22284091      22.94548448 
Au      18.30685281      16.04067444      11.25860803 
Au      16.19365756      16.06574412      23.20986613 
Au      21.36216746      16.25362329      21.75238052 
Au      13.17685765      16.46691438      12.64580574 
Ag      23.28015399      16.38304151      15.57689719 
Au      11.27707510      16.45640389      18.91855404 
Ag      22.42205629      13.59515834      15.90889422 
Ag      12.02311425      13.69398197      18.43523195 
Au      14.97885640      22.73098761      18.10727985 
Ag      19.67646460      22.75985498      16.39761480 
Ag      17.80426462      12.26564077      12.90138615 
Au      16.58988389      12.26400037      21.46913963 
Ag      20.17828442      14.02014528      12.45485475 
Au      14.21193443      14.10977803      21.97658242 
Au      21.85983889      20.97794935      15.81099408 
Au      12.70234434      21.04654289      18.67922567 
Ag      13.59264679      17.07486409      22.41346773 
Au      20.92534746      16.92562676      12.10570668 
Au      22.31254533      19.78737310      19.79859158 
Ag      12.26723419      19.92957379      14.62940510 
Au      20.07758230      21.75896782      20.32522960 
Ag      14.61843657      21.76640393      14.08482109 
Au      15.67279447      10.80548687      17.51243704 
Au      18.71239781      10.75021096      16.89438301 
Au      22.04372476      14.02015716      19.95995916 
Au      12.38812565      14.18511093      14.36874690 
Au      17.04556984      21.70066492      21.37013200 
Au      17.57943150      21.74943374      13.15271628 
Au      19.63368178      12.03917588      20.56456884 
Au      14.74114300      12.27516794      13.70843412 
Au      23.23571116      16.71745078      19.32893703 
Au      11.29916485      16.91435112      14.99423231 
Ag      20.08440337      20.18645102      12.50561659 
Au      14.42227537      20.15725987      21.96237761 
Au      20.70188272      23.16028380      13.50570155 
Au      13.91536750      23.18634050      20.99797487 
Au      24.74407013      14.36669862      17.77799520 
Au       9.73635912      14.55127334      16.50211398 
Au      17.45002983      24.85715318      17.24293840 
Ag      21.57667845      10.79036291      14.76642268 
Au      12.79609950      10.69939917      19.57238742 
Au      16.18631452       9.71092690      13.76016115 
Au      18.05552284       9.53571866      20.58398725 
Au      10.35245651      18.34388877      21.03241216 
Au      24.15750343      18.12153432      13.35909306 
Au      24.55021737      20.19963778      16.89147696 
Au      10.06465228      20.47464483      17.49903580 
Au      23.73061619      18.34499510      22.09047923 
Au      10.83197491      18.65357329      12.29873426 
S      19.51431805       9.56669204      14.81961151 
S      14.81591151       9.49713280      19.62435851 
Au      14.60555542      18.75981907      24.80257585 
Au      19.94796149      18.80834161       9.75295473 
Au      18.47096048      13.18454576       9.99405879 
Au      16.00752111      13.17704775      24.42507303 
Au      19.27340809      21.93384377      23.39630489 
Au      15.30815000      22.10347574      11.13093144 
S      18.63002804      23.94069383      12.71467696 
S      16.02426823      23.88801908      21.78304785 
S      24.07821072      12.78795432      19.40556938 
S      10.29603372      12.97476964      14.83921872 
Au      12.66925418      13.39545248      11.48159075 
Au      21.75798467      13.14091221      22.82796203 
S       8.98860749      16.08056529      18.13042643 
S      25.64865486      15.85712545      16.19848419 
S      11.14229807      17.20753060      22.95386554 
S      23.30329679      16.95173704      11.47578041 
S      22.86821001      22.57096503      14.20730852 
S      11.72392261      22.65837955      20.31413747 
S      22.25870786      19.34797746      23.64023705 
S      12.29541172      19.66299172      10.76310557 
S      18.83302258       8.74804334      18.52736046 
S      15.31158128       8.99214625      15.81380417 
S      16.12181530      13.24231926       9.69218112 
S      18.35645307      13.17300997      24.71976598 
S      18.34482133      20.28668706      24.80770832 
S      16.18684446      20.44572274       9.69236079 
S      24.24166293      21.12506626      19.06254955 
S      10.42710513      21.47812047      15.37790018 
S      15.09100412      25.03081392      17.29722888 
S      19.79202863      25.13326881      17.17496942 
S      17.04891449      10.21873206      11.62297989 
S      17.28000646      10.24661446      22.69785790 
S      15.80934110      16.87795004      25.52751855 
S      18.69078658      16.97333549       8.96839175 
S      22.03511304      15.22484478      23.87851825 
S      12.51354281      15.51333551      10.48041901 
S      23.68273825      11.92693684      14.55927115 
S      10.76068931      11.89451314      19.62368913 
S      13.63797938      13.20410666      24.15748413 
S      20.83024576      13.10964872      10.21829136 
S      21.49249138      11.01609688      21.84465365 
S      12.85492767      11.23226055      12.39254922 
S      20.61151636      23.38073744      22.06102034 
S      13.99810758      23.57192792      12.45912737 
S      25.17764157      16.99897237      20.78550176 
S       9.34827467      17.32957198      13.58806303 
S      13.66641941      20.84171939      24.18688222 
S      20.97559976      20.87631757      10.26689102 
S      25.53536567      19.27715268      14.92224972 
S       9.02956769      19.50165947      19.41968336 
C      18.76208328      14.45869220      25.96041811 
C      15.76783538      14.53141846       8.43826886 
C      23.53943460      22.79698173      18.80916620 
C      11.26015989      23.08151399      15.68631882 
C      20.63832773       8.55287452      18.78874703 
C      13.49185097       9.00104980      15.57447833 
C      10.52385102      15.49130782      22.76514950 
C      23.89211443      15.22863096      11.68658221 
C       8.16133893      15.07451665      19.42183291 
C      26.37702913      14.81097470      14.87904925 
C      22.85101697      21.07623185      23.78689009 
C      11.71554876      21.39839653      10.63183198 
C      14.77496641      26.17550082      18.69963045 
C      20.04178702      26.29009661      15.76758525 
C      23.84011722      15.39203802      24.16247520 
C      10.72809810      15.77392644      10.14717915 
C      19.90426301      15.95689132       8.04302252 
C      14.58584031      15.85790433      26.43532569 
C      19.65016045      24.88316047      21.63848636 
C      15.01854501      25.01668640      12.94752128 
C      21.28334851      11.35618061      10.52056212 
C      13.07734795      11.49310280      23.80695039 
C      24.80714277      11.08071919      15.74673401 
C      19.91835534       7.82756925      15.26247961 
C      14.41948729       7.77747796      19.12582091 
C      26.38309182      18.07125950      19.91745932 
C       8.20493691      18.42583082      14.50926959 
C      18.88060438      24.16146041      10.91130517 
C      15.79918053      24.10153718      23.58995664 
C      23.47356216      24.01591267      15.16263003 
C      11.13745364      24.12368413      19.37952383 
C      17.41763394      21.25978374       8.60536745 
C      20.81941523       9.97325566      23.19334799 
C      13.52221570      10.22503234      11.01447202 
C      11.83904640      20.71116438      24.23553692 
C      22.79191730      20.62561469      10.31134451 
C       9.13764712      13.32682415      13.46183622 
C      18.40279400       9.01318913      11.35155183 
C      15.86809464       9.15845831      23.11470491 
C       8.42409532      20.96582953      20.34010072 
C      26.07820391      20.75800061      13.98942810 
C      17.16859114      21.14261563      25.92277602 
H      16.65256689      20.36897900      26.50512200 
H      16.43089724      21.72891935      25.36875295 
H      17.74521564      21.79349120      26.59013736 
C      25.26397251      13.03028965      20.78333991 
H      26.21867448      12.57208839      20.49955173 
H      24.84959775      12.52090165      21.66236672 
H      25.41033620      14.09459456      20.99705040 
C       9.72511479      11.09139916      18.33338733 
H       8.87184682      11.75197826      18.13645406 
H       9.36957895      10.12863254      18.71667123 
H      10.27826395      10.94438442      17.40115264 
H      26.64290639      15.47791542      14.04939480 
H      25.66618447      14.05269082      14.52972130 
H      27.28221644      14.32887999      15.26488201 
H      26.78385963      17.50001202      19.07161224 
H      27.18671391      18.31537715      20.62199186 
H      25.91762550      18.99168245      19.55281429 
H      26.57851819      20.41408966      13.07674575 
H      26.79216224      21.30537011      14.61597754 
H      25.22796758      21.40114159      13.73328253 
H      24.30982896      23.43298372      18.35914242 
H      23.25858418      23.18802484      19.79434283 
H      22.65037706      22.75667191      18.16806416 
H      23.65108632      24.84644153      14.46994302 
H      24.41740865      23.72316627      15.63894824 
H      22.75056224      24.31206846      15.93024601 
H      20.12495580      25.34650082      20.76539233 
H      19.69632259      25.56626332      22.49469587 
H      18.60792690      24.64193085      21.40393188 
H      21.12148191      26.36299632      15.58904523 
H      19.65001810      27.27527310      16.04335576 
H      19.55016557      25.92917935      14.85868839 
H      17.88898964      24.21206830      10.44455321 
H      19.45640491      23.33070000      10.48865919 
H      19.41681373      25.10412469      10.75058695 
H      15.09312416      27.17979017      18.39730630 
H      15.31235285      25.86210709      19.59982269 
H      13.69700769      26.17289098      18.89978026 
H      15.04037240      25.72807158      12.11426852 
H      16.03909336      24.72232176      13.21409781 
H      14.53694917      25.48002236      13.81687559 
H      10.18361110      23.85471549      18.90849743 
H      11.85665844      24.41170781      18.60647781 
H      10.98370580      24.95248166      20.08003791 
H      16.88272459      21.94319613       7.93592251 
H      17.90761267      20.46848087       8.02443286 
H      18.17298256      21.80470919       9.17758046 
H      23.16247194      20.50852336       9.28710371 
H      23.06810063      19.74947461      10.90700172 
H      23.22877464      21.52316673      10.76533041 
H      23.40016682      14.62195130      10.91636924 
H      23.63691587      14.83321726      12.67626837 
H      24.97827929      15.21440867      11.54243930 
H      20.20094508      16.51099293       7.14523771 
H      19.40661224      15.02005804       7.76169717 
H      20.78413538      15.72630885       8.65078248 
H      21.12828757      10.77866355       9.60242801 
H      20.69842723      10.92593211      11.33953694 
H      22.34596974      11.33818625      10.79130843 
H      18.91984334       9.30573595      10.43002233 
H      17.96741019       8.01572092      11.22439016 
H      19.10390430       9.01282611      12.19349253 
H      13.21928511       8.13042978      14.96661236 
H      13.16147564       9.91944836      15.07709237 
H      13.01638241       8.93339244      16.56102532 
H      12.69525169      10.00089063      10.33088481 
H      13.92322600       9.29846670      11.44275167 
H      14.32227642      10.74898253      10.48160335 
H      16.01214431      14.12000830       7.45190793 
H      16.34922980      15.44190886       8.62050011 
H      14.69596024      14.75816988       8.49500317 
H       9.53724187      12.83048470      12.56855036 
H       9.04661716      14.40403144      13.28555142 
H       8.15803856      12.90666173      13.71820414 
H      10.43472541      15.10070767       9.33347075 
H      10.60090699      16.81879609       9.83799843 
H      10.11867965      15.57839274      11.03386709 
H       7.42427198      18.75971426      13.81603733 
H       8.72322511      19.29270660      14.93020488 
H      10.73855434      21.40316900      10.13623578 
H      12.44769444      21.94142675      10.02119833 
H      11.63860464      21.87834462      11.61216657 
H      11.58329534      23.47346238      14.71398673 
H      12.13663250      22.95632210      16.33439754 
H      10.54480011      23.77225851      16.14572292 
H      19.82193554       7.22704553      14.34955235 
H      19.19680698       7.47728271      16.01071251 
H      20.93516775       7.72705425      15.65237625 
H      25.15124623      10.14367697      15.29485221 
H      24.31339101      10.87583750      16.70118026 
H      25.66524628      11.73855797      15.93160463 
H      24.02942347      16.42527009      24.47899354 
H      24.41342022      15.17909624      23.25602333 
H      24.12263604      14.69462099      24.95946149 
H      19.84206946      14.64150936      25.89926975 
H      18.50343033      14.06619415      26.95079707 
H      18.21668924      15.38920579      25.77049327 
H      15.06672533      14.90127029      26.67681161 
H      13.69001055      15.66924451      25.83663489 
H      14.31886464      16.39099303      27.35495118 
H      12.01821871      11.54904483      23.52862480 
H      13.18994868      10.89263338      24.71683245 
H      13.64291681      11.04983919      22.98193442 
H      16.26687281       8.16155449      23.33603394 
H      15.15752363       9.10315867      22.28236268 
H      15.38706218       9.56927775      24.00973979 
H      20.39001035       9.07323647      22.73629251 
H      20.04230813      10.49658521      23.75911858 
H      21.65221463       9.70350677      23.85307301 
H      15.36739877       7.22476607      19.13219012 
H      13.98729379       7.72791504      18.12184153 
H      22.12090119      21.62536847      24.39472212 
H      22.94423485      21.55424950      22.80714217 
H      23.82436069      21.06050606      24.29041945 
H      11.43546623      21.49889215      23.58847999 
H      11.51797183      20.87440094      25.27098040 
H      11.49144546      19.73272229      23.89067143 
H      15.27818923      25.05100536      23.76065557 
H      16.79563439      24.13391071      24.04803644 
H      15.21507625      23.27739752      24.01357365 
H       7.73782681      21.51751986      19.68711511 
H       9.25639748      21.60950113      20.64815730 
H       7.21781903      14.69526418      19.01283669 
H       7.95635638      15.74024506      20.26949889 
H       8.79434251      14.24114710      19.74641631 
H       9.43238396      15.49224326      22.85783502 
H      10.96717956      14.89532103      23.57191675 
H      10.82376643      15.06864873      21.79914756 
H      21.09968028       8.33566733      17.81859300 
H      20.80451797       7.71032718      19.46979141 
H      21.07913570       9.46314212      19.20906834 
H      13.72819436       7.33712441      19.85258318 
H       7.88302026      20.60630398      21.22310868 
H       7.76210095      17.83414375      15.31910005 
