322
Properties=species:S:1:pos:R:3 i=283 optimized=T E=-4437.4691772945 pbc="F F F" jobid=102_44-Ag-69_6-000005-PBE
Au      16.92397041      17.01872979      15.88751443 
Ag      17.77870364      17.00859884      18.70260962 
Ag      18.69562873      14.92980924      16.89601097 
Ag      15.96696778      14.96901494      17.68716671 
Ag      19.57910577      17.76493162      16.59286607 
Au      15.09654887      17.78341723      18.02542365 
Ag      17.35622203      19.51840347      17.31244620 
Ag      17.90539854      15.09023792      13.94558748 
Ag      16.74986730      14.98913908      20.55300801 
Ag      18.28456376      19.51668538      20.15397217 
Au      16.36116196      19.58597543      14.44222538 
Ag      19.54722144      14.97716916      19.80049820 
Au      15.13731201      14.97352424      14.69377452 
Au      18.71982555      17.90107536      13.72218482 
Ag      15.96428229      17.84769655      20.88184353 
Ag      20.48166589      17.75936994      19.48369838 
Au      14.14699840      17.76510991      15.14395122 
Ag      21.38118891      15.70632706      17.61927874 
Au      13.16280826      15.73625209      16.97250190 
Au      14.05008181      15.74949135      19.84483875 
Ag      20.64062128      15.75131235      14.74545535 
Ag      15.53493486      20.34941672      19.46614842 
Ag      19.14774968      20.35794351      15.18295589 
Ag      20.07113116      20.34576698      17.98061486 
Au      14.57282151      20.34056120      16.65434517 
Ag      17.72638175      12.75760206      18.71168888 
Au      16.93649345      12.84250770      15.75696982 
Ag      16.02087731      17.11833258      12.94367015 
Ag      18.63224024      17.03267337      21.57324787 
Ag      19.71297389      13.01283284      15.05666482 
Ag      14.92980408      12.95007539      19.40808975 
Ag      13.23960979      18.54628327      20.11494089 
Ag      21.46102183      18.51345594      14.55008897 
Ag      20.47092249      12.91072776      17.87256564 
Au      14.16005308      13.02109882      16.65192161 
Au      22.22172061      18.58308785      17.27251702 
Ag      12.38163476      18.55015186      17.39438489 
Ag      17.79967457      22.02548056      18.67743786 
Ag      16.89844954      22.03931532      15.98870783 
Ag      20.51470486      19.25977815      21.98388519 
Au      14.08871737      19.35558629      12.69156198 
Au      18.75882571      14.34403668      22.51783166 
Ag      15.74307583      14.37936317      11.98549167 
Ag      17.33878937      19.34025402      11.64392039 
Ag      17.35775710      19.22315174      22.94673636 
Au      18.25542195      16.33872590      11.29920385 
Ag      16.42695500      16.12163565      23.23985852 
Ag      21.46634502      16.29841565      21.74335487 
Au      13.23746952      16.38343664      12.84845263 
Au      23.26962326      16.47989763      15.62070318 
Ag      11.39808539      16.45599815      19.14590032 
Au      22.38900265      13.70088834      15.86897086 
Ag      12.21238097      13.70598797      18.69581668 
Au      15.02781866      22.79795353      18.05319368 
Ag      19.65444304      22.80407830      16.53976738 
Ag      17.77822450      12.42403929      12.96238970 
Au      16.77512736      12.29601947      21.44437360 
Au      20.09399701      14.22519866      12.44674776 
Ag      14.49922384      14.15085686      22.08325452 
Ag      21.87766051      21.07801571      15.80891964 
Ag      12.81055964      21.06607329      18.77167211 
Ag      13.76758684      17.02988108      22.46996917 
Ag      20.95441446      17.10592522      12.12788980 
Au      22.29969092      19.94475372      19.80055587 
Ag      12.27464902      19.94559021      14.90557573 
Ag      20.05467803      21.75269641      20.42758176 
Ag      14.59972044      21.82912980      14.25072729 
Ag      15.78969723      10.78030875      17.43465199 
Ag      18.73062640      10.80581019      16.78964890 
Au      22.21902120      14.17141729      19.88085347 
Ag      12.41774868      14.15032587      14.58288107 
Ag      17.17028537      21.72580031      21.48063550 
Ag      17.55106727      21.81870797      13.18694416 
Au      19.81834228      12.24931162      20.60583459 
Ag      14.84409383      12.20005732      13.90317829 
Ag      23.23935980      16.90151311      19.39800620 
Au      11.35738555      16.93871103      15.18766061 
Au      20.09679966      20.12918157      12.55181227 
Ag      14.63145719      20.16979210      22.09617804 
Ag      20.57730804      22.94829272      13.67302421 
Au      14.02658102      23.10126785      21.02486223 
Ag      24.63819054      14.56503174      17.86321738 
Ag      10.03226011      14.67916909      16.79706623 
Ag      17.42299927      24.78910012      17.38326000 
Ag      21.57936898      10.78329705      14.88031425 
Ag      12.97678505      10.83360083      19.67168478 
Ag      16.55908601       9.81975825      13.71129740 
Ag      18.14802262       9.80356415      20.47333076 
Ag      10.54283707      18.31245369      21.28395356 
Ag      24.19455164      18.34382141      13.50058408 
Ag      24.49338896      20.42379173      17.05237698 
Ag      10.11500807      20.39354539      17.74770582 
Au      23.79719066      18.39873098      22.03480697 
Ag      10.88986535      18.51401461      12.61875842 
S      19.51745395       9.61182437      14.60505021 
S      15.01471133       9.58309876      19.55319327 
Ag      14.83843604      18.74635003      24.75751739 
Ag      19.89018521      18.93738288       9.82520028 
Ag      18.33349319      13.41150265      10.11605241 
Ag      16.29717256      13.13782821      24.32351073 
Au      19.40511123      21.94991634      23.44966740 
Au      15.28834439      22.17029952      11.27625661 
S      18.55194849      24.06931393      12.94776784 
S      16.08185006      23.94682899      21.81368192 
S      24.25558652      12.86000574      19.55534813 
S      10.39894984      12.87689159      15.23009792 
Au      12.70130186      13.27580567      11.76167245 
Ag      21.75916638      13.37345184      22.78185811 
S       9.05900345      16.20277823      18.40690887 
S      25.61220102      16.03984488      16.20016150 
S      11.40466283      17.19748046      23.24384200 
S      23.34717372      17.28982721      11.48884387 
S      22.92733000      22.71030319      14.25005166 
S      11.79053930      22.62878897      20.43189689 
S      22.39098121      19.35851839      23.67093768 
S      12.33759942      19.53894346      10.98566155 
S      19.04329294       8.90678579      18.44594865 
S      15.72081347       8.86198172      15.72552286 
S      15.95527001      13.46423214       9.68878212 
S      18.69840189      13.24738405      24.71757091 
S      18.49968149      20.32063802      24.89293900 
S      16.21022718      20.58517135       9.79606309 
S      24.19574450      21.43399351      19.25429066 
S      10.34573856      21.37258221      15.54330267 
S      15.02942242      25.15983295      17.43316879 
S      19.80991821      25.15088626      17.32419971 
S      17.13068282      10.51896824      11.46796713 
S      17.43170531      10.30951964      22.75499483 
S      16.09390618      16.89305988      25.60806674 
S      18.56100891      17.13004695       8.96209928 
S      22.12714495      15.42268585      23.98386311 
S      12.42411201      15.38978003      10.75860328 
S      23.72096025      11.89098438      14.87338276 
S      10.91278117      12.02649246      19.97051748 
S      13.86193318      13.19548703      24.26478483 
S      20.79218894      13.41393545      10.26292675 
S      21.63924423      11.13751196      21.85078805 
S      12.91406057      11.12393273      12.67922967 
S      20.70227123      23.44898240      22.14361401 
S      13.96056099      23.59877388      12.63611020 
S      25.33523217      17.15382280      20.72408302 
S       9.31202216      17.17324397      13.89684844 
S      13.88670521      20.92540319      24.34548327 
S      20.88914781      21.07608406      10.43108970 
S      25.59956626      19.52174377      15.08697152 
S       9.08562717      19.48189330      19.74540333 
C      19.04662979      14.51257306      25.99710372 
C      15.55995576      14.82648762       8.52402503 
C      23.43666598      23.08150930      18.98172146 
C      11.08353070      23.04073688      15.76373118 
C      20.86100606       8.81683923      18.69903978 
C      13.93416054       8.55801536      15.42492678 
C      10.76148070      15.47817715      23.14486389 
C      23.95994308      15.55954369      11.57098474 
C       8.21668731      15.15940179      19.66310813 
C      26.30378554      14.93775708      14.90637529 
C      23.00432465      21.08223278      23.81631662 
C      11.74681453      21.27130197      10.85058744 
C      14.77949717      26.22649794      18.90935326 
C      20.01100043      26.29524527      15.89509562 
C      23.93920552      15.55678227      24.25600897 
C      10.61178134      15.60840934      10.56852333 
C      19.72592131      16.06906762       8.01932657 
C      14.85452268      15.86151546      26.48946989 
C      19.71425424      24.95633140      21.79998474 
C      14.93493621      25.09030937      13.07371038 
C      21.41398942      11.71477571      10.57147369 
C      13.23581901      11.52649441      23.81670691 
C      24.68744897      11.09217586      16.21719831 
C      19.83715774       7.85560762      15.05200216 
C      14.54147340       7.87767096      19.04242567 
C      26.43430731      18.33805707      19.85462111 
C       8.18546637      18.26885029      14.84602029 
C      18.81691657      24.40018784      11.15998285 
C      15.80585572      24.23950846      23.60432380 
C      23.36719508      24.23766014      15.17306723 
C      11.22817670      24.13467693      19.54206360 
C      17.41402780      21.47355260       8.73416164 
C      20.95418316      10.13749115      23.22747019 
C      13.52929819      10.10654124      11.27987064 
C      12.05244484      20.81314039      24.35913487 
C      22.71826097      20.91440796      10.42435326 
C       9.14275876      13.14233628      13.91612485 
C      18.54919327       9.44299272      11.01980264 
C      16.01127579       9.19318599      23.06425495 
C       8.53724546      20.97553592      20.66207859 
C      26.18067240      21.02324697      14.20757939 
C      17.32538190      21.19042506      26.00289734 
H      16.85128495      20.42220182      26.62708678 
H      16.55180362      21.73001725      25.44927965 
H      17.89002282      21.88375025      26.63594815 
C      25.39541459      13.24716706      20.93904488 
H      26.36532072      12.78734063      20.71400966 
H      24.98193720      12.80607516      21.85463446 
H      25.52410821      14.32780095      21.06490995 
C       9.74301334      11.26012618      18.77230400 
H       8.85466661      11.90067128      18.71355320 
H       9.45573215      10.27190742      19.14786896 
H      10.17694237      11.17190764      17.77153265 
H      26.52080209      15.54684858      14.02032283 
H      25.60576361      14.13436066      14.64307380 
H      27.23693873      14.50814057      15.28955895 
H      26.87029581      17.81694339      18.99433041 
H      27.22635443      18.64851326      20.54527636 
H      25.88668033      19.21991765      19.50748291 
H      26.68381689      20.71181666      13.28492046 
H      26.89851093      21.54628984      14.85034401 
H      25.34133942      21.68847411      13.96701420 
H      24.19951376      23.74417087      18.55704771 
H      23.10645541      23.47087870      19.95230863 
H      22.57542310      23.02445394      18.30540896 
H      23.39950988      25.07948502      14.47212155 
H      24.36069915      24.09604036      15.61554068 
H      22.64366659      24.44673441      15.96866797 
H      20.17086033      25.45788814      20.93826022 
H      19.76136468      25.61174922      22.67698355 
H      18.67064687      24.71596212      21.56880653 
H      21.08510142      26.42361973      15.71615687 
H      19.56910470      27.26355186      16.15411663 
H      19.53928673      25.89817050      14.98945146 
H      17.83895569      24.45788495      10.66715435 
H      19.41958647      23.61045219      10.69666042 
H      19.33734406      25.35979676      11.05952388 
H      15.10689454      27.24008252      18.65053465 
H      15.34084694      25.85826852      19.77406414 
H      13.71035018      26.23605877      19.15136507 
H      14.83803209      25.81508265      12.25731235 
H      15.99245943      24.84931294      13.23435016 
H      14.50863284      25.50888702      13.99311744 
H      10.23384258      23.92237250      19.12959037 
H      11.91252158      24.39251898      18.72720578 
H      11.15890352      24.96627386      20.25218511 
H      16.87137193      22.20616545       8.12636931 
H      17.87791278      20.72444401       8.07979636 
H      18.19198744      21.97406703       9.31744856 
H      23.07042601      21.24203216       9.43878495 
H      23.03621413      19.88159863      10.59870978 
H      23.12848162      21.56967475      11.20173675 
H      23.45346506      14.98237498      10.78835159 
H      23.74263853      15.10865434      12.54595489 
H      25.04094523      15.56139893      11.39220256 
H      20.00968041      16.60836190       7.10805464 
H      19.20437362      15.14116288       7.75149911 
H      20.62033037      15.82315042       8.59937432 
H      21.34840401      11.14463429       9.63738691 
H      20.83873429      11.21231316      11.35503367 
H      22.46245236      11.78864332      10.88280547 
H      19.04350412       9.87266309      10.14117010 
H      18.15709852       8.45149004      10.76547719 
H      19.25890861       9.35579302      11.85004527 
H      13.83454277       7.73457726      14.70834433 
H      13.43128332       9.44721075      15.02900790 
H      13.46520333       8.26665247      16.37165321 
H      12.68243642       9.88110729      10.62231719 
H      13.93407639       9.17769019      11.70025174 
H      14.31894827      10.61788379      10.72071945 
H      15.73648102      14.45971639       7.50610225 
H      16.17851806      15.71231738       8.70684241 
H      14.50089804      15.08405536       8.64348191 
H       9.49632004      12.64557775      13.00448737 
H       8.98654730      14.20959361      13.72149188 
H       8.19842558      12.68944979      14.23991512 
H      10.26938064      14.91574720       9.79098580 
H      10.43569273      16.64343132      10.24866618 
H      10.07736293      15.41396361      11.50280556 
H       7.26339397      18.36753212      14.26041083 
H       8.62162194      19.25990047      15.00448636 
H      10.79279991      21.25770984      10.31063287 
H      12.49051300      21.84194733      10.28033264 
H      11.60808247      21.73512826      11.83193683 
H      11.34084832      23.43200689      14.77233328 
H      11.99227609      23.00059155      16.37647606 
H      10.34191838      23.69437842      16.23583215 
H      20.80753479       7.53043019      14.66499165 
H      19.03910191       7.26176932      14.58956691 
H      19.78718707       7.72269033      16.13939907 
H      25.04896574      10.12745780      15.84268287 
H      24.08868482      10.94144175      17.12007482 
H      25.54058870      11.73688497      16.46131095 
H      24.15223962      16.57945519      24.59054600 
H      24.50737504      15.35527251      23.34352476 
H      24.22584434      14.84227473      25.03596640 
H      20.08651478      14.84178787      25.88230191 
H      18.91213414      14.03185674      26.97357612 
H      18.36947749      15.37042869      25.91105512 
H      15.33481792      14.91546722      26.76915107 
H      13.98299548      15.64385451      25.86483213 
H      14.53976505      16.39565431      27.39267504 
H      12.18127104      11.62574483      23.53413684 
H      13.31910460      10.86921714      24.68979495 
H      13.79134714      11.09878959      22.97617104 
H      16.41101114       8.18556878      23.22934569 
H      15.32667764       9.18276438      22.20837415 
H      15.49072800       9.53113035      23.96711464 
H      20.47173180       9.24512092      22.81155277 
H      20.22403447      10.70166175      23.81746422 
H      21.79645104       9.84290412      23.86523067 
H      14.56913562       7.23665467      19.93124737 
H      15.27029461       7.52403630      18.30294765 
H      22.30040373      21.62809598      24.45690071 
H      23.06462576      21.57538780      22.84093001 
H      23.99455459      21.06235270      24.28484148 
H      11.65427969      21.52389471      23.62593582 
H      11.70796845      21.08630315      25.36340041 
H      11.70414228      19.80252844      24.12298866 
H      15.23690329      25.16792613      23.72769295 
H      16.78931801      24.34161544      24.07922813 
H      15.25629415      23.40500968      24.05553129 
H       7.81625113      21.51944292      20.04060476 
H       9.38441933      21.62702518      20.90829280 
H       7.30621678      14.74186759      19.21819672 
H       7.94405146      15.80301261      20.50869154 
H       8.86446014      14.34751569      20.01318177 
H       9.68681581      15.49408373      23.35738896 
H      11.28397177      14.87784213      23.89923066 
H      10.93976193      15.03932507      22.15655541 
H      21.34861601       8.72665974      17.71973681 
H      21.08529694       7.92598310      19.29737515 
H      21.24193107       9.70411519      19.21781687 
H      13.53732138       7.84865136      18.60978195 
H       8.04253865      20.65075409      21.58489007 
H       7.96568577      17.79688975      15.81079491 
