322
Properties=species:S:1:pos:R:3 i=226 optimized=T E=-4399.7067221267 pbc="F F F" jobid=102_44-Ag-59_8-000005-PBE
Ag      16.89849293      17.10353717      15.89819444 
Au      17.74798460      17.07326045      18.71785274 
Ag      18.68041902      15.03769606      16.91957465 
Ag      15.95744828      15.03036200      17.72071062 
Ag      19.58562493      17.82770151      16.64098392 
Au      15.06438376      17.85003416      18.01502422 
Ag      17.35213536      19.56384083      17.32654471 
Ag      17.88581812      15.14934557      13.96458388 
Ag      16.70371121      15.07273183      20.59160852 
Au      18.29555391      19.59735450      20.23485745 
Au      16.38001958      19.67016584      14.47155619 
Ag      19.47884816      15.02835770      19.81923179 
Au      15.10618080      15.07251324      14.72960921 
Ag      18.69103084      17.97765235      13.72542904 
Au      15.91922350      17.94921113      20.91025664 
Au      20.49591679      17.82979943      19.51243328 
Au      14.13212371      17.89651991      15.12774305 
Ag      21.41905820      15.75621164      17.63948790 
Ag      13.23853668      15.83732305      16.92437238 
Ag      13.98778931      15.81728671      19.82497700 
Ag      20.59489751      15.82974773      14.78067969 
Ag      15.49888875      20.41114466      19.47993417 
Ag      19.16915358      20.42755771      15.21859561 
Ag      20.10894726      20.38917088      18.01068500 
Ag      14.58068013      20.42269972      16.66174350 
Ag      17.68428594      12.85562337      18.80602419 
Au      16.89905531      12.89773058      15.80245601 
Au      16.02864883      17.20249881      12.98910009 
Ag      18.59235980      17.10888092      21.64672727 
Au      19.69441786      13.11034999      15.11731451 
Ag      14.83839868      13.04799592      19.46712985 
Ag      13.18933329      18.58197349      20.07666673 
Au      21.40070244      18.58091679      14.57894772 
Ag      20.45269431      13.03599657      17.92477075 
Au      14.16409385      13.09590286      16.67360229 
Ag      22.26884692      18.64485260      17.28448287 
Ag      12.39873836      18.68485979      17.34071835 
Au      17.80343943      22.06333567      18.73229051 
Au      16.89385041      22.10755357      16.03085390 
Ag      20.54798981      19.37598880      22.02919479 
Ag      14.14570840      19.45651093      12.63616454 
Ag      18.81602784      14.39363292      22.55498702 
Au      15.79096326      14.48683367      12.01536798 
Au      17.24066160      19.47766475      11.65333188 
Ag      17.26539438      19.30098927      23.03169951 
Au      18.27082614      16.39072058      11.31622755 
Au      16.37016166      16.21870400      23.24108373 
Au      21.35562585      16.39000906      21.78718089 
Ag      13.21088952      16.46551948      12.83838534 
Ag      23.22740571      16.56961014      15.56058427 
Au      11.39712213      16.57115681      18.98386324 
Ag      22.41124352      13.75656539      15.86690571 
Ag      12.10985913      13.80115356      18.56770768 
Au      15.01321151      22.87019683      18.14174706 
Au      19.68999033      22.88373799      16.63993821 
Au      17.81259073      12.42070441      13.03354577 
Ag      16.81785015      12.41329502      21.57499255 
Au      20.11358564      14.28329559      12.48411838 
Au      14.46131797      14.19941073      22.05327584 
Au      21.86937437      21.16664636      15.83297760 
Ag      12.79899243      21.17342136      18.84096934 
Ag      13.70367938      17.13521141      22.49275980 
Ag      20.94364740      17.13972730      12.13114322 
Au      22.34798895      19.99360311      19.79999195 
Ag      12.32055824      20.05894516      14.84622625 
Ag      20.07975476      21.83469345      20.45867166 
Ag      14.65598570      21.93091559      14.22916597 
Ag      15.79839131      10.87566574      17.57752854 
Au      18.74659891      10.95817158      16.90386531 
Ag      22.14065586      14.19047944      20.01935223 
Ag      12.42821661      14.23337950      14.63183806 
Ag      17.13054658      21.80043456      21.53769425 
Au      17.61887544      21.89830508      13.23053700 
Ag      19.79325987      12.30459759      20.68123920 
Ag      14.84086523      12.30610673      13.88913510 
Au      23.21012843      16.93043601      19.43034925 
Ag      11.38088136      17.01469221      15.13766998 
Au      20.09636707      20.19257397      12.55542093 
Ag      14.53974562      20.18282241      22.09557840 
Ag      20.57278750      23.04857837      13.68676333 
Ag      14.06654973      23.01921596      21.02124792 
Au      24.64808443      14.50390350      17.73215758 
Au       9.82583910      14.66174536      16.65230259 
Ag      17.32954618      24.83456194      17.36905516 
Ag      21.48418469      10.84231535      14.79668591 
Au      12.88450932      10.90469489      19.71300420 
Ag      16.50211642       9.85235913      13.94544680 
Au      18.29946713       9.80367757      20.68127437 
Ag      10.49605029      18.30584199      21.20570513 
Ag      24.14362899      18.43333237      13.48191853 
Ag      24.49580027      20.51738583      17.03412651 
Ag      10.14466729      20.50621423      17.72064084 
Au      23.81255844      18.47865892      22.11160104 
Ag      10.91724661      18.61674371      12.57551857 
S      19.43866865       9.57655673      14.79927181 
S      14.95501270       9.79694224      19.76824027 
Au      14.74868405      18.94706024      24.85470804 
Ag      19.80166856      18.94153742       9.85670242 
Ag      18.32470301      13.43756759      10.19361793 
Au      16.26040316      13.30603939      24.50183779 
Au      19.43869699      22.03054240      23.45685908 
Ag      15.30932952      22.13646496      11.28993509 
S      18.54346604      24.10614410      12.81380693 
S      16.09187476      24.01328732      21.89422688 
S      24.08236558      12.81386427      19.27905159 
S      10.32819537      12.99407822      15.06742725 
Ag      12.83219072      13.54346245      11.75819349 
Au      21.88830513      13.26985025      22.83075482 
S       9.06050238      16.24836551      18.22534666 
S      25.56718472      16.05839352      16.21484606 
S      11.31300308      17.15294941      23.16816919 
S      23.34122223      17.35261681      11.47060527 
S      22.93452342      22.77423767      14.27858500 
S      11.71455255      22.72099109      20.47628011 
S      22.41552757      19.48225947      23.71758862 
S      12.33394072      19.65716779      10.94344077 
S      19.01677186       9.08118362      18.57459315 
S      15.52275235       8.94461203      15.92768338 
S      15.91777236      13.48771352       9.79682497 
S      18.59548726      13.31923663      24.82850846 
S      18.50709306      20.41392429      24.89777307 
S      16.15784637      20.50722505       9.70798085 
S      24.21976559      21.47462471      19.26224362 
S      10.42699549      21.50838254      15.53511628 
S      14.92982214      25.23616978      17.49941544 
S      19.72626155      25.25067046      17.24745231 
S      17.09363599      10.51725059      11.67098166 
S      17.60212659      10.36807761      22.85662813 
S      15.97469462      17.06629165      25.57060772 
S      18.54436825      17.10113488       8.95269251 
S      22.05969663      15.35205116      23.91171881 
S      12.40953444      15.63478970      10.65143921 
S      23.58547770      11.98643351      14.55706562 
S      10.81892396      12.04234692      19.81138337 
S      13.88960867      13.28513054      24.25854904 
S      20.79058301      13.45757129      10.30082250 
S      21.78192635      11.15259748      21.82004224 
S      12.89755107      11.31718730      12.67313642 
S      20.74068257      23.53249027      22.15607396 
S      13.90415647      23.62683784      12.60450106 
S      25.25035354      17.14049111      20.76837637 
S       9.31318955      17.29378217      13.80057627 
S      13.73471031      21.01673270      24.31392431 
S      20.84439876      21.07665635      10.39841983 
S      25.58376450      19.54288811      15.09053989 
S       9.07480331      19.51484208      19.65822112 
C      18.94573565      14.61637684      26.07778356 
C      15.53080688      14.80990614       8.58743953 
C      23.44638959      23.11896446      19.00926705 
C      11.18693554      23.16197353      15.78444667 
C      20.83469991       8.89332870      18.73380975 
C      13.71158602       8.84439476      15.62726392 
C      10.73403849      15.42213392      22.95658366 
C      24.00007555      15.63835692      11.50488238 
C       8.21111279      15.27639536      19.52849621 
C      26.31459038      15.04501984      14.87836022 
C      23.04263717      21.20103230      23.85374318 
C      11.70457256      21.38005792      10.82465330 
C      14.74815896      26.29745297      18.99005861 
C      19.92581328      26.30812362      15.75688720 
C      23.85381852      15.58933728      24.21921877 
C      10.58784586      15.75772088      10.44544132 
C      19.76975307      16.07251763       8.05236372 
C      14.73349261      16.04150009      26.44960427 
C      19.73403261      25.02467813      21.79774773 
C      14.86919470      25.12698626      13.04535835 
C      21.42259213      11.76947213      10.65002720 
C      13.37340114      11.55490845      23.93617683 
C      24.74296804      11.15333097      15.71996196 
C      19.81618303       7.85168891      15.31526198 
C      14.60284194       8.03651299      19.37761833 
C      26.38314036      18.24657575      19.84416950 
C       8.19406239      18.40984720      14.73899679 
C      18.85090743      24.31967389      11.01840884 
C      15.78827618      24.28996106      23.68413941 
C      23.38360679      24.27173505      15.24110356 
C      11.25175032      24.25627543      19.57708322 
C      17.40122275      21.35456635       8.65803105 
C      21.21910001      10.03802008      23.16636398 
C      13.52227959      10.30787153      11.26930526 
C      11.91465416      20.77735725      24.35364557 
C      22.66980556      20.89905173      10.31941707 
C       9.17112618      13.31207406      13.67862515 
C      18.53068925       9.47131852      11.22016613 
C      16.22517028       9.21778016      23.23339284 
C       8.48600458      20.97417728      20.60171982 
C      26.17338984      21.03085624      14.19230893 
C      17.35833379      21.31381873      26.01084838 
H      16.84473430      20.55878216      26.61890702 
H      16.61459651      21.89112494      25.45479670 
H      17.94465252      21.97675649      26.65674142 
C      25.36204412      12.96122277      20.58886379 
H      26.30011155      12.53194737      20.21938155 
H      25.00309197      12.38848951      21.45293286 
H      25.51892354      14.00723470      20.87348335 
C       9.76242505      11.21659128      18.55325346 
H       8.88435689      11.85386533      18.39260523 
H       9.44696762      10.24280400      18.94358759 
H      10.28446113      11.09075702      17.60012301 
H      26.59608390      15.73085704      14.06958128 
H      25.60911904      14.29586702      14.50073637 
H      27.21176201      14.55148792      15.26827441 
H      26.75001960      17.69571219      18.97007265 
H      27.21851491      18.50298516      20.50604900 
H      25.87681188      19.16117385      19.52006483 
H      26.64951037      20.70881333      13.25906718 
H      26.91510072      21.54208228      14.81718857 
H      25.34117842      21.71134395      13.96854513 
H      24.21133766      23.79585626      18.61144432 
H      23.09456035      23.48680555      19.98055909 
H      22.60073185      23.05990810      18.31362658 
H      23.46443781      25.11891643      14.54982668 
H      24.35583727      24.09887195      15.71857840 
H      22.63378992      24.48844000      16.00980654 
H      20.15799395      25.50342333      20.90707994 
H      19.80903745      25.70496698      22.65370145 
H      18.68334919      24.77156114      21.61389508 
H      20.98907494      26.33975569      15.49148769 
H      19.58312289      27.31751065      16.01282838 
H      19.35151890      25.92477933      14.90739210 
H      17.88684595      24.38306128      10.49943130 
H      19.44392979      23.49057289      10.61502905 
H      19.40032652      25.25948551      10.88406212 
H      15.11593898      27.29920285      18.73986846 
H      15.30567575      25.89679476      19.84341263 
H      13.68361291      26.35321244      19.24670895 
H      14.72159513      25.86850570      12.25162297 
H      15.93805231      24.90599544      13.14786441 
H      14.48500561      25.52237349      13.99278836 
H      10.26225852      24.10654989      19.12816214 
H      11.97479835      24.48891213      18.78777657 
H      11.20276791      25.08616716      20.29126382 
H      16.86864340      22.05304074       8.00172558 
H      17.90653891      20.59284591       8.05066229 
H      18.14448255      21.89636027       9.24959176 
H      22.98483085      21.22309853       9.32002665 
H      22.98601203      19.86362634      10.48139548 
H      23.11827802      21.55103860      11.07776426 
H      23.51473048      15.07505101      10.69896424 
H      23.78558134      15.14447359      12.45929113 
H      25.08209232      15.67182065      11.33612897 
H      20.04994947      16.60822133       7.13783021 
H      19.29627705      15.11795279       7.78951871 
H      20.66202357      15.87522601       8.65388459 
H      21.38461397      11.18627411       9.72232577 
H      20.83324427      11.27347779      11.42722868 
H      22.46172114      11.85701977      10.98814030 
H      19.03719063       9.92214374      10.35944501 
H      18.14141568       8.48538208      10.93858474 
H      19.22384965       9.36700567      12.06231191 
H      13.49976223       7.90663038      15.10017605 
H      13.35080983       9.68767523      15.02734422 
H      13.18939059       8.84440032      16.59221511 
H      12.67071882      10.06448660      10.62373373 
H      13.95766710       9.38622373      11.67319666 
H      14.28557405      10.84004788      10.69202399 
H      15.67097020      14.38241711       7.58711255 
H      16.18853972      15.67738706       8.71370795 
H      14.48396356      15.10818413       8.72144647 
H       9.57916083      12.80436390      12.79571250 
H       9.06813785      14.38577436      13.48598011 
H       8.19380876      12.88645971      13.93314399 
H      10.27883311      15.04643441       9.67129403 
H      10.35659637      16.77992927      10.11954385 
H      10.05107650      15.54765393      11.37480837 
H       7.30360986      18.58411058      14.12385843 
H       8.66974329      19.36998729      14.96250373 
H      10.71899635      21.35362915      10.34653889 
H      12.40000403      21.95408570      10.19968569 
H      11.62485440      21.86041028      11.80462133 
H      11.48677792      23.54859942      14.80300663 
H      12.07221960      23.10586718      16.42980134 
H      10.43993191      23.82578839      16.23319289 
H      19.34329729       7.18285883      14.58588313 
H      19.38752895       7.66053798      16.30696065 
H      20.89431050       7.66703286      15.32810250 
H      25.01405245      10.17614112      15.30534159 
H      24.30662447      11.03181031      16.71604848 
H      25.64064753      11.77732315      15.80709046 
H      23.99398145      16.62464695      24.55348211 
H      24.44560303      15.41409383      23.31635922 
H      24.15482120      14.89116838      25.00873907 
H      20.02208796      14.82353495      26.03626914 
H      18.67838813      14.22819625      27.06702924 
H      18.38815882      15.53687782      25.87434645 
H      15.21378546      15.08770991      26.70264562 
H      13.85341742      15.84921857      25.82820547 
H      14.44016148      16.57110351      27.36294950 
H      12.31022342      11.57672971      23.66865878 
H      13.51342254      10.96938257      24.85194774 
H      13.94203702      11.11457988      23.11136017 
H      16.63416898       8.21066909      23.37121554 
H      15.48353293       9.21645191      22.42674619 
H      15.76680319       9.55808301      24.16947461 
H      20.87652776       9.10737466      22.69781572 
H      20.39085290      10.47279855      23.73434710 
H      22.06927281       9.83554804      23.82701967 
H      15.55948390       7.50524322      19.45511561 
H      14.21479812       7.91919627      18.36144019 
H      22.33121754      21.76147381      24.47294343 
H      23.12592746      21.67985320      22.87318783 
H      24.02359081      21.17614083      24.34100454 
H      11.46884681      21.53867477      23.70250425 
H      11.57009319      20.91836858      25.38433673 
H      11.62789271      19.77981492      24.00609946 
H      15.24701882      25.23596693      23.80182404 
H      16.75713005      24.35685988      24.19328406 
H      15.19647470      23.47667452      24.11869296 
H       7.74037241      21.50119794      19.99479443 
H       9.31807784      21.64899022      20.84083037 
H       7.28184394      14.87188913      19.11111185 
H       7.97652105      15.96854988      20.34724983 
H       8.84513743      14.46206282      19.89633243 
H       9.64641648      15.39789540      23.08653185 
H      11.21339823      14.80831842      23.72799253 
H      11.00194230      15.02928979      21.96898291 
H      21.24448967       8.73597892      17.72869950 
H      21.03763719       8.01484363      19.35728022 
H      21.29270657       9.78017633      19.18583191 
H      13.89295153       7.63456235      20.10789510 
H       8.01410778      20.62260174      21.52643292 
H       7.90769705      17.91380027      15.67345370 
