322
Properties=species:S:1:pos:R:3 i=291 optimized=T E=-4437.4694544284 pbc="F F F" jobid=102_44-Ag-69_6-000001-PBE
Ag      16.79702145      16.96191415      15.89063936 
Ag      17.63111351      16.94173906      18.70877507 
Ag      18.57702917      14.89456707      16.87562104 
Au      15.83740344      14.89337298      17.67734258 
Au      19.48655900      17.68525852      16.60741872 
Ag      14.94696108      17.71068379      17.99746089 
Au      17.19839525      19.42139875      17.30468437 
Au      17.81749710      14.98913201      13.97645417 
Ag      16.61404017      14.94433657      20.55459478 
Au      18.17579582      19.50302082      20.18716023 
Ag      16.31180376      19.50086080      14.45488632 
Au      19.40551716      14.87598340      19.82510625 
Au      14.98893091      14.94746229      14.74156906 
Ag      18.64916402      17.81106649      13.72270189 
Ag      15.81332815      17.77414905      20.92297364 
Ag      20.38589291      17.64151496      19.47535336 
Ag      14.06313391      17.76218887      15.12367437 
Ag      21.29834891      15.64332095      17.62726311 
Ag      13.11999692      15.72189637      16.96348289 
Ag      13.91069757      15.70151091      19.80500088 
Ag      20.53746179      15.70303166      14.75147658 
Au      15.42729607      20.25667172      19.45376477 
Ag      19.08573511      20.26219545      15.20456320 
Au      20.01206654      20.27783743      18.00982210 
Ag      14.46242451      20.30260192      16.64128574 
Ag      17.57942233      12.69929187      18.75718621 
Ag      16.78277167      12.76497310      15.78709406 
Au      15.95275535      17.07049735      12.99811695 
Au      18.46193945      16.98502134      21.60621644 
Ag      19.60033468      12.90769287      15.08192635 
Ag      14.79055096      12.92047790      19.44972503 
Ag      13.10509202      18.47121077      20.07510243 
Ag      21.38178199      18.45450156      14.55696239 
Au      20.32080681      12.89142663      17.85719489 
Ag      14.03324616      12.91955504      16.67433685 
Ag      22.15925347      18.46436561      17.29914557 
Ag      12.30796062      18.58553974      17.33083270 
Ag      17.71008445      21.95900119      18.62520168 
Au      16.78279451      21.99485132      15.95067706 
Au      20.38133104      19.19443966      21.95879873 
Ag      14.09573261      19.26834186      12.59906659 
Au      18.69231331      14.25756531      22.52947226 
Ag      15.64703862      14.36649047      12.00787895 
Ag      17.31006628      19.23694863      11.62019149 
Ag      17.27825226      19.22956341      22.97876967 
Ag      18.17029923      16.13625106      11.31855479 
Ag      16.27598795      16.05227969      23.28558835 
Au      21.30260491      16.15219799      21.73739912 
Ag      13.13460503      16.32236060      12.78936729 
Ag      23.18703560      16.37564220      15.62236135 
Ag      11.28289689      16.48280135      19.00617086 
Ag      22.32339191      13.64042295      15.89683481 
Ag      12.07332139      13.70102414      18.68241110 
Ag      14.96828347      22.76975238      18.14487904 
Ag      19.57033547      22.75829033      16.51862479 
Au      17.63177557      12.37487279      13.01667990 
Ag      16.69278432      12.26620795      21.58302216 
Ag      20.03823724      14.15633326      12.46073812 
Au      14.38992992      14.10687218      22.05174896 
Ag      21.78937400      20.99461561      15.91619686 
Au      12.74844795      21.05741817      18.85136341 
Ag      13.58492361      16.95275189      22.44496499 
Ag      20.84613367      17.06954836      12.11037402 
Ag      22.25323604      19.80201545      19.81299764 
Ag      12.19545658      19.90933790      14.78759021 
Ag      19.95625920      21.72918304      20.42690701 
Au      14.47729115      21.68225869      14.22623067 
Ag      15.70864617      10.76465654      17.60112108 
Ag      18.65771762      10.72627786      16.87070652 
Ag      22.10047041      14.02021569      19.89937991 
Au      12.33939262      14.16375366      14.66997591 
Ag      16.97230638      21.75588146      21.43443741 
Au      17.57172118      21.64304785      13.16268153 
Au      19.67565414      12.12630921      20.63070648 
Ag      14.64338498      12.20858123      13.87746729 
Ag      23.13800450      16.79684990      19.45296491 
Ag      11.32174839      16.93685490      15.17920712 
Ag      20.05046397      20.12615347      12.60196671 
Au      14.49886680      20.09241447      22.06763176 
Au      20.66144904      23.14240186      13.68128925 
Ag      14.02881015      22.95105898      21.02839087 
Ag      24.52947339      14.53605060      17.87518530 
Ag       9.89740180      14.64520276      16.69576425 
Ag      17.23916493      24.69698082      17.31405512 
Ag      21.66544106      10.86602657      14.78797283 
Ag      12.83239130      10.78346344      19.61696122 
Au      16.09420482       9.66059977      13.91495319 
Ag      17.93350556       9.72890685      20.56613178 
Ag      10.41814896      18.20997607      21.28111457 
Ag      24.09247545      18.19240934      13.47473417 
Ag      24.45422808      20.28620558      17.03553681 
Ag      10.07318595      20.39736609      17.79589181 
Ag      23.61005500      18.27251176      22.04234445 
Au      10.76415774      18.42566989      12.55195196 
S      19.62148720       9.63688122      14.74215660 
S      14.89913441       9.58723490      19.76193807 
Ag      14.65233688      18.75902878      24.73191023 
Au      19.84663095      18.84442827       9.80576271 
Au      18.30682475      13.32436455      10.04507305 
Au      16.12431849      13.15609452      24.50045375 
Ag      19.23399293      21.96786878      23.34809193 
Au      15.27539001      21.93821245      11.17483289 
S      18.58943393      23.87302844      12.82518488 
S      16.05667774      24.02137575      21.83646305 
S      24.13991323      12.72505594      19.42671220 
S      10.28805147      12.91949110      15.03095602 
Ag      12.68334359      13.40711946      11.72934650 
Ag      21.67637267      13.20272116      22.77679602 
S       8.92654811      16.12709020      18.33032064 
S      25.54734952      16.09730024      16.33491266 
S      11.23363485      17.08820799      23.26006020 
S      23.27838015      17.03354618      11.52075603 
S      22.85036617      22.67984042      14.40622661 
S      11.68371067      22.67398390      20.39104980 
S      22.15056621      19.33801242      23.64103514 
S      12.19111673      19.42343004      10.96673441 
S      18.70838489       8.78138086      18.51197602 
S      15.26994599       8.85301616      15.94252668 
S      15.96230292      13.35780535       9.74420802 
S      18.47546661      13.23210865      24.75849381 
S      18.32013097      20.38663303      24.90842068 
S      16.12606909      20.33437941       9.67699297 
S      24.21863245      21.22641950      19.25508320 
S      10.29030058      21.34120337      15.57672005 
S      14.85375172      25.12058749      17.39298079 
S      19.62792353      25.10380141      17.30956154 
S      16.87121578      10.38204042      11.80672712 
S      17.38276293      10.22192736      22.86956909 
S      15.85644437      16.90049637      25.61809616 
S      18.54322496      17.06252832       8.99694699 
S      22.06663844      15.29210953      23.91702292 
S      12.44166552      15.47588633      10.53847596 
S      23.75670548      12.03691320      14.63650873 
S      10.72122453      11.92135906      19.77147536 
S      13.75950219      13.16449266      24.24445756 
S      20.67952358      13.27789785      10.22930907 
S      21.54288629      11.00176435      21.78782249 
S      12.69977538      11.18896948      12.64671774 
S      20.65283199      23.44283315      22.04132016 
S      13.95993996      23.38676027      12.53505661 
S      25.21637680      16.96061651      20.79779457 
S       9.22625105      17.16481213      13.84340579 
S      13.68088718      20.92714458      24.21390828 
S      20.92209099      20.87243865      10.37415331 
S      25.49378706      19.40152556      15.03225623 
S       8.99783733      19.41802878      19.74544369 
C      18.85040302      14.53523400      25.99283426 
C      15.59229141      14.63128037       8.47687139 
C      23.51318719      22.91252099      19.06727824 
C      11.04770769      23.00232850      15.77134436 
C      20.50767284       8.53293876      18.79534263 
C      13.44579244       8.80861086      15.72119488 
C      10.59677132      15.36930674      23.12473912 
C      23.82547589      15.29207066      11.72107550 
C       8.14313624      15.04813147      19.59444859 
C      26.37655424      15.06846074      15.05863893 
C      22.77686328      21.05803085      23.77625315 
C      11.60004987      21.15642964      10.84150058 
C      14.67515465      26.25322526      18.83364703 
C      19.83987488      26.24547966      15.88112515 
C      23.88621190      15.42199160      24.12657536 
C      10.63545168      15.65314913      10.24301951 
C      19.71341789      16.04204789       8.01774773 
C      14.57946311      15.89931241      26.48036672 
C      19.72957215      24.96579587      21.59060865 
C      14.94769431      24.85497548      13.01500459 
C      21.17241110      11.53569913      10.53691787 
C      13.22916204      11.44932987      23.87066697 
C      24.85661012      11.21007698      15.86004285 
C      20.06280136       7.90404699      15.19176908 
C      14.53586849       7.83137778      19.34893991 
C      26.37638483      18.08954806      19.92701518 
C       8.10992795      18.34056068      14.70519695 
C      18.88887139      24.13681303      11.03523480 
C      15.75874804      24.26189588      23.63345167 
C      23.34187434      24.14647569      15.39686792 
C      11.24069525      24.18477687      19.44680623 
C      17.31055172      21.21177030       8.58501732 
C      20.90099109       9.94633161      23.14480043 
C      13.30763627      10.12953628      11.27344469 
C      11.85099075      20.78098868      24.18681680 
C      22.73578832      20.60296188      10.30445294 
C       9.13522303      13.27342533      13.64909471 
C      18.26964212       9.28422365      11.37053270 
C      15.98830280       9.09657924      23.26142181 
C       8.47255613      20.89873166      20.69580398 
C      26.05002196      20.89835264      14.12528683 
C      17.08828834      21.25350195      25.95841066 
H      16.59499881      20.49823633      26.58324638 
H      16.33249635      21.77844885      25.36791017 
H      17.61855944      21.96751325      26.59872182 
C      25.34350823      13.01168509      20.78497003 
H      26.30397089      12.57014409      20.49463073 
H      24.96677017      12.50947511      21.68444819 
H      25.47937471      14.08135538      20.98140845 
C       9.65392602      11.16972373      18.47399816 
H       8.77545507      11.81335625      18.34303609 
H       9.33294392      10.18020643      18.81783093 
H      10.17072395      11.08147598      17.51370831 
H      26.67492251      15.73027673      14.23595257 
H      25.71018232      14.28574281      14.67713563 
H      27.27086392      14.61313904      15.49889418 
H      26.63615468      17.64619380      18.95866524 
H      27.27639620      18.18458769      20.54558245 
H      25.93898809      19.08110108      19.77394612 
H      26.54964014      20.57630245      13.20425417 
H      26.76907102      21.43630757      14.75425694 
H      25.20794470      21.55585662      13.87924659 
H      24.28446683      23.57205912      18.65450238 
H      23.21329934      23.27000621      20.05963351 
H      22.63360266      22.90877216      18.41290992 
H      23.47127205      25.00223863      14.72503725 
H      24.29869041      23.91129307      15.87901002 
H      22.59323000      24.37836480      16.16242787 
H      20.10365468      25.32970555      20.62663902 
H      19.92117163      25.71488751      22.36764911 
H      18.65181351      24.77859075      21.51801968 
H      20.91216275      26.33354039      15.66988981 
H      19.44148467      27.22813576      16.15702002 
H      19.33030120      25.87413435      14.98627013 
H      17.90982281      24.20987523      10.54578200 
H      19.46417587      23.30955999      10.60482331 
H      19.43858739      25.07703658      10.91071237 
H      15.10379914      27.22613214      18.56899106 
H      15.17224115      25.85776379      19.72600500 
H      13.60521614      26.37338622      19.04148477 
H      14.91286994      25.57181551      12.18618076 
H      15.98643028      24.58807603      13.23643613 
H      14.48220384      25.29300724      13.90614137 
H      10.27175624      24.01830840      18.96085435 
H      11.99627762      24.41487023      18.68733026 
H      11.15588252      25.01973512      20.15223806 
H      16.75671902      21.92433476       7.96385522 
H      17.78037309      20.45001977       7.95043800 
H      18.08780067      21.73034760       9.15330261 
H      23.06580608      20.72872908       9.26699003 
H      23.01350158      19.60434390      10.65605815 
H      23.20623483      21.36331468      10.93875171 
H      23.35039612      14.69919126      10.93053455 
H      23.53332192      14.88626349      12.69706622 
H      24.91488576      15.24992812      11.61324138 
H      19.99227513      16.60266899       7.11875088 
H      19.18797280      15.11981970       7.73913685 
H      20.60765605      15.78201332       8.59185942 
H      20.99584510      10.94567259       9.63063483 
H      20.62626500      11.10412667      11.38139248 
H      22.24459142      11.54041443      10.76759515 
H      18.73713791       9.69156392      10.46663625 
H      17.86092702       8.28935906      11.15872184 
H      18.99285491       9.23136371      12.19275398 
H      13.18311988       7.90906575      15.15275290 
H      13.08008156       9.69519976      15.19049257 
H      12.98350598       8.76131255      16.71563189 
H      12.45795632       9.89979277      10.62038099 
H      13.70760183       9.20398016      11.70473444 
H      14.09708609      10.62128994      10.69641936 
H      15.84497056      14.22209070       7.49222629 
H      16.15419865      15.55489714       8.65392986 
H      14.51656699      14.83985563       8.53368570 
H       9.53781184      12.79998336      12.74488215 
H       9.01286788      14.35079786      13.49311105 
H       8.16558826      12.82664862      13.89992974 
H      10.34140712      14.95048667       9.45526633 
H      10.45227324      16.68238291       9.91116771 
H      10.05105540      15.46117329      11.14743014 
H       7.26174259      18.55292505      14.04443433 
H       8.62173490      19.27559243      14.95326051 
H      10.61115963      21.15508859      10.37002121 
H      12.31503284      21.69690812      10.20864579 
H      11.54499901      21.64158288      11.82112002 
H      11.31200661      23.37428204      14.77471153 
H      11.95339472      22.95823182      16.38775886 
H      10.31432469      23.67371318      16.23140204 
H      21.10305454       7.81778677      15.51852926 
H      19.91281553       7.27894940      14.30341399 
H      19.39302889       7.57107644      15.99466861 
H      25.16528941      10.24054289      15.45378612 
H      24.36715223      11.07271373      16.82893221 
H      25.74022997      11.84454579      16.00109313 
H      24.12116786      16.44872226      24.43545063 
H      24.42463611      15.18915507      23.20347809 
H      24.18515495      14.72261309      24.91615571 
H      19.90939796      14.79881285      25.88238061 
H      18.67130248      14.10953401      26.98717042 
H      18.22382785      15.42275582      25.84839534 
H      15.03027823      14.93808204      26.75677428 
H      13.70883657      15.71276836      25.84393421 
H      14.26905636      16.43802050      27.38235050 
H      12.17810336      11.49419177      23.56115261 
H      13.32110348      10.84486109      24.78025750 
H      13.82783323      11.01319921      23.06497569 
H      16.39009361       8.08785432      23.41121314 
H      15.25185391       9.08137093      22.45000777 
H      15.51935274       9.44092090      24.19021626 
H      20.44214076       9.05322422      22.70434198 
H      20.15310206      10.46464372      23.75283519 
H      21.75792554       9.65986709      23.76608040 
H      15.46840588       7.27206597      19.49411150 
H      14.22056582       7.71785782      18.30711411 
H      22.05855119      21.64231191      24.36507950 
H      22.91084073      21.52597858      22.79604958 
H      23.73875529      21.02161623      24.30097031 
H      11.45422650      21.47413124      23.43609338 
H      11.48749017      21.06399248      25.18206372 
H      11.52720401      19.75989490      23.96150409 
H      15.21823414      25.20600949      23.76899277 
H      16.72660950      24.31894972      24.14603303 
H      15.16493000      23.44084549      24.05120872 
H       7.70910671      21.42669290      20.11199606 
H       9.32061365      21.56841758      20.88766917 
H       7.22399865      14.62537831      19.17300422 
H       7.89052738      15.67486591      20.45870513 
H       8.81290712      14.23922729      19.90942345 
H       9.51170521      15.38275897      23.27539912 
H      11.07234466      14.77016301      23.91001169 
H      10.83257626      14.92974792      22.14887337 
H      20.99320655       8.33249705      17.83365097 
H      20.63794349       7.66532895      19.45260509 
H      20.96659797       9.41265195      19.26003505 
H      13.76361628       7.44560961      20.02244807 
H       8.03478282      20.56917348      21.64491581 
H       7.75794168      17.85620540      15.62357404 
