322
Properties=species:S:1:pos:R:3 i=289 optimized=T E=-4399.7439719687 pbc="F F F" jobid=102_44-Ag-59_8-000009-PBE
Ag      16.83126568      17.11663551      15.76728517 
Au      17.60837111      17.08579889      18.62599190 
Au      18.55648826      15.05912924      16.78982639 
Au      15.81880027      15.03791463      17.54974597 
Ag      19.48632125      17.83404165      16.56887707 
Ag      14.96667675      17.84934409      17.84164069 
Ag      17.22408188      19.59381940      17.25217550 
Ag      17.84708568      15.11032186      13.86710036 
Au      16.55782164      15.07950560      20.52165670 
Au      18.14309474      19.58614445      20.10975515 
Au      16.34260717      19.63628057      14.37718611 
Ag      19.35696642      15.00272387      19.76033467 
Au      15.03236927      15.03963245      14.57911245 
Ag      18.67217359      17.99175616      13.58575039 
Ag      15.80973571      17.88807216      20.78395269 
Au      20.38971168      17.79045331      19.42587130 
Ag      14.09971114      17.84039074      14.98742443 
Au      21.31950117      15.75285233      17.59237850 
Au      13.11772458      15.79049168      16.77695403 
Ag      13.87714167      15.80427366      19.68043703 
Ag      20.52945090      15.82939060      14.69639268 
Ag      15.38569478      20.40467810      19.34768180 
Ag      19.06578213      20.38858823      15.16820844 
Ag      19.97408852      20.38584635      17.96119837 
Ag      14.49072190      20.44812743      16.49905497 
Ag      17.52284339      12.81924779      18.63358345 
Ag      16.79169688      12.86396346      15.66292492 
Au      16.02541445      17.15704004      12.85879200 
Ag      18.46857190      17.09871269      21.55907319 
Au      19.56072551      13.05010217      15.01375861 
Au      14.73428479      13.04009970      19.30161228 
Au      13.11944863      18.56764259      19.90521142 
Au      21.33516653      18.57234156      14.51369870 
Au      20.25618771      12.99097126      17.86639582 
Ag      14.06907790      13.03354259      16.49822159 
Ag      22.15506742      18.60958612      17.24034639 
Au      12.32391955      18.66362621      17.12620855 
Ag      17.68700578      22.12944143      18.60542752 
Au      16.81017680      22.12828073      15.93658986 
Ag      20.38020176      19.31673353      21.93797436 
Au      14.16019696      19.38624284      12.52103889 
Au      18.59928223      14.36168646      22.46493797 
Ag      15.74967645      14.45385557      11.87830641 
Au      17.31051425      19.54063683      11.59073280 
Ag      17.11424573      19.29642859      22.91418354 
Au      18.31947527      16.22792957      11.28896533 
Ag      16.19470300      16.17015208      23.16390761 
Au      21.26381119      16.32586366      21.65054466 
Ag      13.18748218      16.46389892      12.66271241 
Ag      23.19135461      16.52286797      15.55349582 
Ag      11.25477948      16.60440050      18.82907819 
Au      22.28370596      13.74582145      15.88816043 
Ag      12.02702984      13.81065986      18.45992124 
Au      14.87461838      22.84111140      18.04524682 
Ag      19.59237864      22.85241116      16.45293577 
Ag      17.75061552      12.41837494      12.86887926 
Au      16.61729045      12.38357719      21.39960805 
Ag      20.13299058      14.20940396      12.43556237 
Ag      14.27398459      14.24753303      21.99081238 
Ag      21.78210899      21.09691968      15.80220154 
Ag      12.64555926      21.12474023      18.65164901 
Ag      13.55540878      17.15032800      22.36215885 
Ag      20.94275303      17.14189496      12.05608177 
Ag      22.23109471      19.93427416      19.75463545 
Ag      12.26750405      20.04002692      14.59317216 
Ag      19.89097829      21.79734272      20.40465938 
Au      14.63633036      21.88411947      14.03777008 
Ag      15.67179570      10.83824818      17.47823727 
Ag      18.64876511      10.81788933      16.79762543 
Ag      22.04428325      14.09614818      19.91745117 
Ag      12.36526679      14.22691495      14.41244542 
Ag      16.98352557      21.78103420      21.40417104 
Ag      17.58416983      21.92691895      13.15960941 
Ag      19.59451720      12.22001603      20.57251672 
Ag      14.75499692      12.30952318      13.72698947 
Ag      23.15477940      16.87148546      19.37892817 
Ag      11.27755995      16.93701960      15.03387047 
Ag      20.09095759      20.34820840      12.57023828 
Au      14.43111910      20.15143352      21.94584447 
Au      20.62744152      23.34598009      13.63252683 
Au      13.89751388      23.17976217      20.95112544 
Ag      24.50079965      14.58393902      17.76697767 
Au       9.74892667      14.58208589      16.60862005 
Au      17.38354966      24.96353985      17.35611912 
Ag      21.33676371      10.79529880      14.74019161 
Au      12.96447811      10.74351549      19.58000925 
Ag      16.35543552       9.86222606      13.80030394 
Ag      17.89233861       9.80190158      20.49944350 
Ag      10.42010536      18.38358996      21.01889230 
Ag      24.06760881      18.36946820      13.44502265 
Ag      24.41589520      20.46453682      17.03193534 
Au      10.00166189      20.49296818      17.47725135 
Ag      23.67506524      18.40170035      21.92405327 
Au      10.85068772      18.54001260      12.33685050 
S      19.30260994       9.52989724      14.64020227 
S      14.97025021       9.50949305      19.62940683 
Au      14.67552357      18.80812103      24.79057264 
Au      19.94675658      19.02365181       9.80266642 
Au      18.45025394      13.37506003       9.99331920 
Ag      16.04574636      13.24810669      24.27425411 
Au      19.29150792      22.01825159      23.37000687 
Ag      15.31145930      22.21199209      11.14434664 
S      18.58490205      24.17411135      12.79377203 
S      15.96583637      24.02599857      21.71187259 
S      24.07742205      12.80619966      19.34446806 
S      10.32504518      12.94755964      15.01001983 
Au      12.69359553      13.45229637      11.55058015 
Au      21.72711287      13.20415050      22.72495358 
S       8.89208372      16.11008822      18.18521548 
S      25.54727878      16.10432692      16.19761745 
S      11.14018679      17.23455729      23.02449512 
S      23.36179311      17.19985331      11.44212660 
S      22.82447293      22.82688674      14.30552343 
S      11.66687259      22.65912016      20.39717630 
S      22.25989656      19.41767048      23.57280313 
S      12.37289407      19.53003994      10.82472172 
S      18.75917135       8.88809107      18.47599328 
S      15.36442457       8.97418898      15.78091923 
S      16.11411765      13.42946125       9.62915436 
S      18.44766076      13.34183555      24.69072540 
S      18.36826911      20.38996802      24.79949728 
S      16.23991635      20.58377236       9.63169640 
S      24.15684558      21.41283427      19.24763626 
S      10.38272860      21.51209773      15.37190606 
S      15.03124945      25.19466211      17.33402908 
S      19.73465063      25.17677987      17.37123254 
S      16.90810363      10.48367340      11.53675351 
S      17.26826119      10.44784367      22.76088560 
S      15.84683859      16.92206126      25.54822583 
S      18.71148565      17.17842564       9.01791439 
S      22.01156771      15.30471003      23.75340123 
S      12.50033161      15.51146737      10.43552614 
S      23.43777387      11.98332938      14.65157762 
S      10.92898556      11.94055263      19.68858509 
S      13.60656250      13.27789146      24.15696025 
S      20.81710221      13.30598749      10.22705754 
S      21.47956736      11.05475469      21.80520976 
S      12.78053569      11.30065738      12.50882004 
S      20.61371433      23.50309255      22.06306205 
S      13.90721582      23.65432324      12.53454955 
S      25.25019179      17.07379778      20.65763100 
S       9.29722809      17.25616400      13.56234567 
S      13.74181833      20.90316735      24.19576746 
S      20.95815147      21.09072279      10.34280171 
S      25.45600490      19.56621605      15.03903231 
S       8.99814310      19.53474672      19.40694901 
C      18.84888763      14.62810268      25.93332495 
C      15.78161683      14.74927327       8.39841242 
C      23.41016330      23.07669063      19.02605676 
C      11.18440493      23.12773541      15.70387319 
C      20.56748382       8.69052698      18.73437891 
C      13.55010175       8.91111417      15.49129299 
C      10.52309097      15.51310981      22.85119174 
C      23.96020144      15.47473462      11.64797749 
C       8.13867429      15.07200376      19.49968529 
C      26.28425106      15.02575725      14.90531837 
C      22.89549615      21.13205326      23.75122111 
C      11.80719502      21.26810437      10.66951569 
C      14.67754849      26.30886749      18.75041119 
C      20.03984427      26.39347232      16.02529127 
C      23.81973350      15.51014282      23.98795501 
C      10.70634755      15.69606849      10.08501566 
C      19.93274722      16.16580470       8.09854219 
C      14.57722611      15.90991759      26.40396929 
C      19.63005106      25.00457207      21.67934605 
C      14.85263239      25.14517843      13.04014759 
C      21.30206086      11.56018159      10.52488570 
C      12.98080673      11.61282019      23.69320121 
C      24.53202649      11.13590836      15.86198906 
C      19.67437780       7.79759930      15.14039452 
C      14.56628973       7.79440934      19.12191031 
C      26.37135304      18.18211966      19.71283413 
C       8.16293593      18.39694610      14.44534936 
C      18.92601161      24.44263148      11.00875613 
C      15.71186472      24.29629804      23.51002186 
C      23.37759205      24.26433867      15.30454830 
C      11.03551570      24.15840711      19.54436201 
C      17.48448585      21.43670545       8.58758651 
C      20.82135370      10.06522108      23.20504771 
C      13.34527678      10.22116772      11.13480774 
C      11.91441530      20.76465054      24.27067208 
C      22.77912073      20.86363322      10.35058544 
C       9.12003536      13.17300295      13.64315139 
C      18.30265383       9.39057126      11.05947258 
C      15.83558576       9.38540707      23.18439111 
C       8.38118848      20.99472555      20.33042787 
C      26.03825914      21.06236593      14.14812917 
C      17.22317510      21.27296292      25.92926880 
H      16.72528505      20.50904517      26.53947692 
H      16.46579046      21.84490304      25.38580037 
H      17.81012321      21.93884965      26.57154419 
C      25.28966160      13.07262530      20.69876816 
H      26.23237168      12.58755720      20.41984473 
H      24.89009241      12.60715637      21.60804592 
H      25.46746292      14.13993804      20.87278201 
C       9.82836471      11.10963130      18.47313220 
H       8.93653802      11.73727251      18.35604763 
H       9.54317466      10.13003260      18.87196695 
H      10.30943581      10.99619945      17.49700894 
H      26.57422517      15.66014191      14.05872059 
H      25.57654878      14.26170692      14.56416375 
H      27.17752495      14.54349037      15.31846125 
H      26.64597035      17.68390356      18.77576469 
H      27.26719847      18.35064290      20.32152622 
H      25.90015818      19.14525932      19.49241937 
H      26.55927841      20.73778821      13.23981072 
H      26.74269180      21.60099852      14.79276428 
H      25.20262114      21.71919086      13.87840240 
H      24.16758774      23.74701688      18.60503671 
H      23.09842846      23.44431645      20.01088340 
H      22.53477081      23.04064884      18.36650285 
H      23.47603515      25.14005721      14.65352263 
H      24.35777904      24.01095684      15.72755299 
H      22.67504591      24.47636310      16.11739243 
H      20.08047153      25.47881506      20.79917998 
H      19.68711224      25.68408447      22.53723972 
H      18.58365787      24.76205286      21.46353367 
H      21.12598609      26.47717606      15.89920111 
H      19.63142958      27.36466676      16.32502745 
H      19.59007493      26.06787902      15.08178148 
H      17.96145707      24.56228892      10.50004864 
H      19.47369400      23.59708361      10.57814550 
H      19.51559355      25.35969818      10.89693170 
H      15.04602869      27.31025932      18.50056059 
H      15.14882936      25.94755275      19.67022488 
H      13.58969135      26.33888020      18.88480600 
H      14.70107833      25.91027813      12.26941243 
H      15.92177392      24.93133754      13.14611963 
H      14.45528718      25.49994610      13.99824869 
H      10.05141423      23.91081583      19.12702782 
H      11.70491189      24.46341190      18.73386490 
H      10.93189153      24.97234594      20.27046889 
H      16.94880176      22.08991112       7.88887157 
H      18.03782993      20.66978490       8.03141372 
H      18.18946137      22.02506633       9.18110350 
H      23.14466906      20.93816006       9.32023189 
H      23.06635064      19.89417067      10.76992305 
H      23.20736294      21.66975800      10.95792285 
H      23.50942134      14.86540455      10.85570548 
H      23.67530071      15.06010585      12.62178884 
H      25.05112789      15.46591794      11.54650926 
H      20.21834972      16.71712387       7.19543337 
H      19.44266007      15.22208585       7.82699633 
H      20.81923854      15.95042498       8.70286972 
H      21.15344884      10.98275496       9.60554775 
H      20.73019180      11.11423568      11.34463595 
H      22.36643204      11.56265178      10.78883808 
H      18.79693968       9.83159412      10.18632014 
H      17.89100705       8.41117295      10.78962269 
H      19.01683353       9.27606354      11.88263241 
H      13.32419056       8.01713519      14.89817806 
H      13.18920574       9.79838559      14.95892849 
H      13.03952769       8.84283791      16.46021788 
H      12.49767437      10.04788529      10.46271705 
H      13.67322558       9.27256448      11.57706866 
H      14.18258246      10.66549960      10.58805826 
H      16.06363158      14.37642004       7.40717888 
H      16.33575832      15.66676768       8.62403161 
H      14.70419085      14.95465917       8.42677205 
H       9.51070132      12.62177291      12.77893041 
H       9.00135295      14.23167485      13.38873662 
H       8.15545677      12.75305562      13.94955160 
H      10.42372165      14.97135812       9.31356612 
H      10.55374133      16.71666868       9.71306950 
H      10.09886760      15.54613017      10.98198031 
H       7.43367497      18.79179549      13.72954558 
H       8.70219969      19.22278552      14.92001658 
H      10.82823984      21.26451639      10.17669501 
H      12.53588389      21.79751158      10.04213910 
H      11.73298973      21.76288011      11.64290610 
H      11.47098670      23.55290536      14.73417903 
H      12.08532302      23.01258144      16.32009984 
H      10.46464529      23.78547842      16.20273027 
H      20.75305625       7.61988558      15.17779992 
H      19.22585991       7.13531194      14.39031980 
H      19.22410211       7.59789146      16.12127324 
H      24.84424431      10.18081504      15.42422052 
H      24.02904372      10.96655134      16.81856132 
H      25.41117110      11.76926072      16.03208947 
H      23.99162453      16.53893496      24.32934081 
H      24.37393925      15.33071864      23.06219123 
H      24.14229047      14.80207018      24.75999048 
H      19.90603124      14.89680999      25.81987300 
H      18.68213862      14.19089336      26.92516913 
H      18.22355289      15.51967333      25.81472742 
H      15.04747432      14.95833702      26.68269533 
H      13.71533904      15.70779246      25.76119292 
H      14.25808246      16.44486292      27.30496855 
H      11.92028475      11.71627199      23.43575597 
H      13.08235328      10.94001572      24.55218247 
H      13.51437865      11.20097817      22.83052116 
H      16.22890118       8.39725140      23.45141796 
H      15.14871112       9.29295104      22.33577486 
H      15.32309481       9.82114874      24.04914825 
H      20.38489637       9.14945558      22.78815909 
H      20.05069429      10.60975837      23.75990228 
H      21.65588551       9.81198416      23.86849472 
H      15.48013852       7.20554989      19.27141858 
H      14.29110139       7.74681543      18.06319918 
H      22.17627887      21.69924770      24.35491124 
H      23.02075830      21.62556966      22.78223151 
H      23.86049815      21.08921801      24.26862488 
H      11.49761511      21.52045911      23.59431705 
H      11.60347877      20.97112966      25.30156441 
H      11.57096407      19.76766135      23.97685554 
H      15.13625247      25.21817456      23.65068080 
H      16.70047815      24.40230662      23.97345827 
H      15.17686235      23.45441060      23.96314334 
H       7.68285938      21.54588840      19.69046832 
H       9.20771920      21.64504115      20.64031941 
H       7.23290429      14.59882052      19.10446865 
H       7.87024133      15.74189065      20.32617671 
H       8.83502223      14.30620761      19.85880202 
H       9.43755792      15.51017747      22.99986532 
H      11.00737518      14.90181706      23.62228668 
H      10.76510686      15.09746968      21.86621117 
H      21.02959476       8.45083986      17.76885470 
H      20.73646260       7.86132592      19.43084432 
H      21.02112551       9.60240353      19.13845387 
H      13.76246771       7.39755014      19.75010352 
H       7.84947697      20.62569029      21.21569255 
H       7.65148931      17.80902590      15.21681766 
