322
Properties=species:S:1:pos:R:3 i=215 optimized=T E=-4206.9080421774 pbc="F F F" jobid=102_44-Ag-09_8-000005-PBE
Au      16.83298662      17.02310480      15.75501424 
Au      17.68232155      16.98053462      18.66672488 
Au      18.60669270      14.94607587      16.80362646 
Au      15.87591183      14.95047256      17.58731284 
Au      19.52131393      17.76453645      16.55028727 
Au      15.00513339      17.76346379      17.90592882 
Au      17.26418006      19.49239626      17.24102718 
Au      17.88071397      15.05000637      13.83282130 
Au      16.60877163      14.98753842      20.55607443 
Au      18.23881582      19.50415673      20.14581005 
Au      16.28347942      19.58904444      14.33390547 
Au      19.40758439      14.89048374      19.81600971 
Au      15.07254191      14.98621179      14.54416546 
Au      18.64539494      17.93751550      13.57955805 
Au      15.88603596      17.86743230      20.86775235 
Au      20.44764899      17.67539611      19.47655315 
Au      14.07397293      17.78414866      14.98614579 
Au      21.36036488      15.68197488      17.57190211 
Au      13.12342573      15.73607975      16.79608877 
Au      13.90371677      15.72661796      19.73791809 
Au      20.61594988      15.74264481      14.69028441 
Au      15.45982721      20.33990045      19.41381868 
Au      19.09703025      20.36438672      15.12572241 
Au      20.06935694      20.36676761      17.97326688 
Au      14.47038771      20.38635027      16.51573880 
Au      17.60608135      12.66676808      18.70488473 
Au      16.84138971      12.76764169      15.62541415 
Au      15.96075619      17.13610570      12.74833233 
Au      18.56105347      17.00298469      21.66852199 
Au      19.68301642      12.96430696      15.03561174 
Au      14.78420910      12.93280769      19.32772801 
Au      13.12367061      18.55311334      19.99572927 
Au      21.41154733      18.54783168      14.49452822 
Au      20.39367355      12.92731284      17.82559103 
Au      14.08653824      12.97804048      16.48275947 
Au      22.21658760      18.53543039      17.24583356 
Au      12.31802264      18.58315839      17.21924352 
Au      17.75783357      22.02810114      18.61782343 
Au      16.78180656      22.08307988      15.93348941 
Au      20.41507792      19.25050479      21.99517808 
Au      14.05805566      19.40095353      12.53209318 
Au      18.72818304      14.22355963      22.50062534 
Au      15.75306364      14.36929621      11.86201665 
Au      17.33715258      19.40013093      11.51767864 
Ag      17.27162022      19.25442406      22.96105719 
Au      18.28649188      16.17339419      11.21654866 
Au      16.25958942      16.11549819      23.23185757 
Au      21.39528798      16.27287177      21.72924044 
Au      13.12743161      16.46206683      12.66959050 
Ag      23.25670194      16.48276193      15.51259558 
Au      11.29427196      16.49554173      18.97998349 
Ag      22.43184939      13.69944951      15.86415152 
Au      12.07742753      13.72749056      18.46927799 
Au      14.98496268      22.84446199      18.15371576 
Au      19.59221100      22.84266587      16.40835276 
Au      17.79656626      12.36893675      12.87926705 
Au      16.62794568      12.28176307      21.48305774 
Au      20.24079457      14.16710899      12.41905665 
Au      14.28844815      14.11759180      21.99362992 
Au      21.84413760      21.09003469      15.83377444 
Au      12.72592320      21.09227318      18.64814714 
Au      13.63394132      17.04354076      22.38401421 
Au      20.91118585      17.12075707      12.06586108 
Au      22.28477939      19.86150092      19.82065518 
Ag      12.15986528      19.96936704      14.69454831 
Au      20.00328843      21.78500832      20.40015307 
Au      14.49403980      21.87060270      14.15385803 
Au      15.74722874      10.80841963      17.41338632 
Au      18.73063876      10.78510394      16.81323318 
Au      22.09265049      14.05363824      19.91278701 
Au      12.40424629      14.16376027      14.40996066 
Ag      17.08052475      21.77711246      21.43505952 
Au      17.51313672      21.84529622      13.13939242 
Au      19.67515511      12.08925838      20.55028893 
Ag      14.74995404      12.21200220      13.71325884 
Au      23.26383729      16.75408489      19.30384633 
Au      11.26386807      16.92878354      15.06712007 
Au      20.08780957      20.30436924      12.52646565 
Au      14.54497227      20.21827196      22.03882944 
Au      20.65461922      23.26176374      13.52953866 
Au      13.94504347      23.19176887      21.01291322 
Au      24.75783311      14.44802559      17.72084528 
Au       9.75161223      14.58989950      16.58027221 
Ag      17.29678310      24.76534664      17.31312436 
Au      21.65063331      10.83455216      14.61695684 
Au      13.00560241      10.61588432      19.54470700 
Au      16.16977932       9.66284849      13.73330913 
Ag      17.92979526       9.72146497      20.40266590 
Au      10.39454873      18.30416778      21.18980135 
Au      24.14608297      18.32853278      13.37849884 
Au      24.50536432      20.36149399      16.93915299 
Ag      10.07281137      20.38542739      17.63649185 
Au      23.71825519      18.40578993      22.08135342 
Au      10.76444394      18.59215635      12.35575786 
S      19.63730685       9.62366064      14.70660617 
S      15.04481375       9.44408407      19.51911724 
Ag      14.68024208      18.72836971      24.67050973 
Au      19.88115625      18.87074494       9.69294964 
Au      18.40469039      13.29824420       9.94965188 
Au      16.08529353      13.19459199      24.43422351 
Au      19.25551804      21.99590171      23.47726348 
Au      15.29196791      22.16329407      11.11909264 
S      18.56816539      24.02087860      12.73324599 
S      16.00035431      24.00386370      21.82870720 
S      24.13753996      12.83929743      19.33919069 
S      10.31782959      13.00337745      14.92292351 
Au      12.66414537      13.33562642      11.53855610 
Au      21.81610483      13.13542187      22.77216542 
S       8.99596350      16.14313483      18.18873238 
S      25.61672793      15.98743228      16.16346120 
S      11.29557696      17.17480163      23.08083540 
S      23.29613409      17.20790252      11.46309787 
S      22.83266505      22.70702699      14.24304552 
S      11.75826974      22.64085456      20.29668927 
S      22.24402578      19.37312583      23.65049755 
S      12.25831192      19.63897054      10.86573129 
S      18.82184325       8.79819865      18.37998395 
S      15.30898221       8.91143788      15.76748947 
S      16.05605766      13.34804751       9.65631959 
S      18.43799275      13.18330770      24.69937704 
S      18.32535620      20.39209269      24.92133462 
S      16.18303309      20.52581731       9.67320988 
S      24.18011406      21.26707613      19.11913519 
S      10.23586475      21.39464814      15.42886323 
S      14.89700667      25.16414232      17.40801377 
S      19.70053702      25.14148440      17.19011472 
S      17.02662266      10.37795083      11.65822296 
S      17.31900976      10.27044861      22.68977759 
S      16.02966401      16.93740824      25.54696941 
S      18.63137610      17.03478019       8.91617134 
S      22.11978033      15.21511716      23.82319535 
S      12.44099311      15.45670350      10.53960961 
S      23.67889593      12.03157634      14.47003849 
S      10.98509571      11.84184351      19.58641331 
S      13.71465655      13.24276993      24.19428826 
S      20.77055218      13.26362709      10.22123235 
S      21.49393521      11.00550757      21.80863226 
S      12.82388167      11.16594243      12.42552721 
S      20.59252870      23.41671242      22.10982232 
S      13.96173748      23.57887049      12.49907062 
S      25.18635589      17.09565889      20.76216504 
S       9.30005952      17.26196158      13.65061500 
S      13.74482667      20.92821425      24.23029010 
S      20.85605381      20.94439039      10.29230928 
S      25.51304328      19.45296289      14.97279394 
S       9.00985315      19.44489108      19.63736232 
C      18.86324122      14.44599439      25.95609626 
C      15.67974466      14.64361893       8.41704683 
C      23.43648163      22.92445989      18.88449586 
C      10.97878145      23.05742206      15.66329176 
C      20.61461381       8.60559302      18.72179254 
C      13.48649869       8.91846962      15.55052773 
C      10.67110127      15.45909663      22.91956541 
C      23.88909740      15.48172527      11.62679639 
C       8.15942531      15.15598040      19.48843129 
C      26.37475592      14.98822621      14.82394846 
C      22.82657728      21.10203335      23.82630346 
C      11.67793771      21.37614138      10.78668998 
C      14.68716594      26.27533903      18.85768608 
C      19.88617302      26.27122507      15.75124146 
C      23.92961205      15.38559136      24.07060244 
C      10.64272046      15.66513935      10.23957373 
C      19.84208018      16.01100880       7.99570572 
C      14.84858411      15.89221259      26.48586692 
C      19.65059402      24.93580050      21.70156122 
C      14.93915510      25.04951105      12.99133880 
C      21.27995988      11.52859210      10.52718065 
C      13.12933771      11.53206734      23.88700851 
C      24.80719152      11.16675152      15.63708131 
C      20.10180810       7.90800727      15.17178879 
C      14.68226251       7.71880695      19.01859168 
C      26.35866378      18.19714843      19.88574979 
C       8.13979732      18.36497106      14.54372266 
C      18.80789890      24.24780320      10.93023741 
C      15.72564345      24.23489398      23.62726382 
C      23.39712481      24.15190199      15.22230830 
C      11.18641819      24.12323445      19.37857088 
C      17.38721907      21.36333637       8.57483564 
C      20.81425684       9.99630479      23.17988400 
C      13.46234239      10.15205258      11.03533305 
C      11.91482510      20.84677838      24.13865507 
C      22.68015954      20.77729066      10.26383744 
C       9.14816992      13.31454429      13.54633348 
C      18.41176189       9.24726869      11.26187208 
C      15.88000452       9.21595073      23.10499389 
C       8.45353245      20.93175380      20.55541500 
C      26.07284319      20.94419387      14.06669925 
C      17.10307747      21.25484954      25.98225033 
H      16.61151403      20.48548752      26.59121536 
H      16.34772486      21.78565750      25.39659122 
H      17.63627021      21.95632933      26.63345865 
C      25.33676883      13.09058023      20.70404147 
H      26.29376460      12.64483295      20.40839975 
H      24.93905805      12.57355103      21.58629756 
H      25.47300624      14.15566978      20.92054930 
C       9.94340827      11.04968964      18.29756879 
H       9.09377858      11.71587308      18.10364216 
H       9.58727331      10.08958933      18.68792154 
H      10.49767920      10.89973303      17.36652183 
H      26.63728448      15.68164458      14.01510770 
H      25.68023324      14.22944538      14.44614020 
H      27.28390940      14.50961411      15.20466492 
H      26.78155776      17.62934221      19.04845128 
H      27.15059591      18.47688021      20.59018814 
H      25.86362652      19.09627735      19.50706106 
H      26.58356217      20.61154980      13.15564390 
H      26.77998709      21.48136671      14.70951134 
H      25.22664992      21.59223018      13.80913248 
H      24.19305806      23.58384796      18.44462495 
H      23.14551102      23.29585919      19.87440625 
H      22.55033863      22.87315038      18.24071063 
H      23.56542441      24.99405053      14.54126667 
H      24.34136952      23.87444681      15.70710967 
H      22.65832011      24.42294260      15.98427388 
H      20.11685876      25.38760170      20.81800710 
H      19.72812496      25.62006650      22.55454063 
H      18.59838479      24.71515412      21.49111457 
H      20.92654065      26.23615332      15.40725757 
H      19.64373468      27.28539856      16.09008907 
H      19.22787233      25.98634146      14.92504287 
H      17.81510935      24.30235541      10.46639441 
H      19.37951722      23.41663851      10.50300350 
H      19.34718093      25.18903049      10.77113136 
H      14.98103805      27.28597349      18.55090914 
H      15.29362062      25.94991554      19.70863694 
H      13.63050452      26.27240018      19.15005157 
H      14.89536679      25.77466584      12.17026762 
H      15.98052613      24.78720829      13.20600372 
H      14.47241182      25.47314500      13.88862539 
H      10.23089132      23.87257261      18.90139360 
H      11.91345330      24.41670573      18.61391428 
H      11.03827950      24.94049339      20.09383294 
H      16.83175969      22.03753881       7.91269134 
H      17.88562975      20.58282704       7.98641725 
H      18.13761417      21.92253054       9.13958661 
H      23.01411552      20.87432810       9.22422986 
H      23.00541079      19.81402852      10.66808472 
H      23.09492428      21.59219639      10.86881751 
H      23.43096744      14.90296606      10.81571025 
H      23.59306341      15.04874227      12.58920881 
H      24.97993256      15.47690568      11.52437521 
H      20.12546393      16.55615801       7.08811028 
H      19.34731989      15.06720761       7.73251948 
H      20.72935413      15.79645061       8.59826823 
H      21.14258482      10.95293921       9.60475802 
H      20.70711806      11.08474357      11.34683579 
H      22.34185546      11.54504477      10.80018228 
H      18.90672197       9.63649554      10.36469816 
H      17.98931213       8.25825980      11.05006440 
H      19.11875032       9.18655738      12.09677984 
H      13.20240005       8.03810613      14.96242437 
H      13.14495207       9.82773850      15.04389725 
H      13.02784668       8.86650731      16.54634553 
H      12.63566332       9.95167905      10.34471953 
H      13.83598888       9.21147089      11.45829434 
H      14.27943193      10.65591601      10.50957938 
H      15.92151690      14.24216156       7.42595774 
H      16.25293090      15.55832418       8.60298822 
H      14.60572450      14.85711832       8.48425022 
H       9.55132044      12.81057493      12.65892970 
H       9.03579021      14.38723035      13.35574786 
H       8.17817543      12.88060022      13.81631716 
H      10.35460219      14.98732006       9.42775607 
H      10.47592061      16.70679547       9.93834598 
H      10.05560658      15.44721328      11.13596727 
H       7.29450461      18.56976576      13.87618554 
H       8.61725802      19.30674947      14.83120550 
H      10.71281238      21.38560570      10.26741555 
H      12.41990066      21.94639112      10.21374038 
H      11.56891448      21.81259522      11.78430438 
H      11.23825039      23.45688924      14.67599550 
H      11.88615318      23.00494328      16.27658608 
H      10.24049184      23.71139293      16.14046505 
H      20.04027769       7.28775426      14.26955682 
H      19.38237121       7.55314411      15.92109332 
H      21.11578073       7.85855515      15.57762889 
H      25.13292978      10.22519844      15.18143877 
H      24.32442443      10.97349256      16.59954650 
H      25.67350708      11.81941028      15.80120625 
H      24.12142789      16.41591693      24.39526260 
H      24.48446871      15.18580215      23.14984519 
H      24.23176281      14.68025489      24.85327922 
H      19.93854919      14.64543578      25.87088750 
H      18.63740551      14.02589920      26.94327779 
H      18.29722703      15.37204698      25.80299669 
H      15.34044315      14.93903404      26.71879274 
H      13.93848729      15.69191813      25.91291286 
H      14.59676485      16.42175213      27.41212505 
H      12.06221431      11.59372956      23.64241464 
H      13.26523439      10.94099557      24.79983320 
H      13.66492106      11.07338044      23.05075650 
H      16.25740235       8.20723593      23.31155031 
H      15.16361200       9.17714884      22.27713786 
H      15.40404682       9.61871823      24.00593416 
H      20.35745066       9.09974265      22.74396563 
H      20.05936409      10.54595233      23.75067850 
H      21.65129344       9.71494067      23.82942423 
H      15.64742703       7.23247078      18.83065638 
H      14.07606085       7.67393225      18.10937827 
H      22.09700363      21.63403910      24.44981701 
H      22.91156335      21.59981236      22.85578990 
H      23.80273625      21.08222530      24.32428223 
H      11.56522646      21.65726311      23.48860001 
H      11.52541809      20.98772804      25.15386582 
H      11.56832064      19.88615459      23.74496275 
H      15.17411103      25.16887079      23.78404618 
H      16.70894110      24.29887524      24.10937101 
H      15.15782430      23.39593452      24.04610382 
H       7.74431108      21.47238550      19.91699449 
H       9.30042531      21.58136869      20.80638746 
H       7.21617901      14.77383811      19.08138210 
H       7.95423110      15.83368722      20.32664752 
H       8.78828398      14.32524291      19.82501478 
H       9.58680235      15.47306554      23.07793776 
H      11.15975849      14.85641927      23.69443838 
H      10.90850681      15.04678739      21.93237891 
H      21.13598955       8.40081216      17.78005183 
H      20.74314944       7.75460476      19.40121557 
H      21.03280730       9.50745446      19.18133693 
H      14.16201667       7.21409232      19.84026681 
H       7.94520799      20.61000309      21.47136869 
H       7.79295687      17.83202344      15.43674048 
