322
Properties=species:S:1:pos:R:3 i=233 optimized=T E=-4206.9222034094 pbc="F F F" jobid=102_44-Ag-09_8-000001-PBE
Au      16.85189507      17.11346606      15.78946803 
Au      17.71225706      17.06377003      18.69336176 
Au      18.61156717      15.00741712      16.81423749 
Au      15.90345038      15.03282056      17.63959644 
Au      19.53075549      17.83653841      16.58985413 
Au      15.03748039      17.84619077      17.94054610 
Ag      17.28577829      19.59060737      17.28417140 
Au      17.87598218      15.13579467      13.84700527 
Au      16.64949823      15.04547794      20.58016348 
Au      18.26530981      19.59431751      20.15325034 
Au      16.29730438      19.63190942      14.35420162 
Au      19.43794751      14.95101592      19.86919902 
Au      15.08702262      15.04477524      14.64717000 
Au      18.64652955      18.00687551      13.61003180 
Au      15.94001242      17.92921900      20.90588387 
Au      20.46709662      17.77359212      19.48238301 
Au      14.10331378      17.81411588      15.02134753 
Au      21.35759525      15.73516850      17.63973316 
Au      13.14073209      15.78603469      16.85286268 
Au      13.93651684      15.79842859      19.80278425 
Au      20.59496546      15.80315453      14.69534176 
Au      15.45940395      20.40911249      19.44134208 
Au      19.11412745      20.41370877      15.14544876 
Au      20.08416313      20.42407097      17.98143727 
Au      14.51413925      20.43088742      16.59127654 
Ag      17.60663064      12.78379740      18.70412320 
Au      16.85121978      12.80178011      15.68186155 
Ag      15.96997691      17.17255166      12.79953570 
Au      18.60899396      17.07462833      21.70257310 
Au      19.67400939      13.00031333      15.04671550 
Au      14.81872613      13.00227549      19.38556927 
Au      13.15345668      18.59460921      20.03317161 
Au      21.41069641      18.60401087      14.52410722 
Au      20.34110977      12.96622936      17.89533854 
Au      14.12179775      13.02303825      16.59551448 
Au      22.25776478      18.59959349      17.27488504 
Au      12.32224311      18.62178855      17.28699575 
Au      17.76795242      22.13997783      18.61918020 
Au      16.83228340      22.14436974      15.94131306 
Au      20.48545218      19.33739359      21.97866300 
Au      14.02634374      19.42687016      12.57985614 
Au      18.74851916      14.28132979      22.53667722 
Au      15.68317007      14.38904479      11.97796432 
Au      17.35440369      19.43180877      11.55280576 
Au      17.32767805      19.34478233      22.98927016 
Au      18.28344858      16.27308130      11.24534140 
Au      16.30016096      16.12641705      23.25063510 
Au      21.43423025      16.37538919      21.74663980 
Au      13.17236465      16.44212929      12.73464888 
Au      23.22099036      16.49442570      15.51294520 
Au      11.31906777      16.53052914      19.01889001 
Au      22.38076638      13.73938056      15.92957985 
Au      12.09681952      13.74997782      18.51166451 
Au      14.95296063      22.86283206      18.09851330 
Au      19.63441802      22.87470499      16.42604743 
Au      17.81337480      12.43827023      12.89772807 
Au      16.69627932      12.33908497      21.46194634 
Au      20.19907844      14.23165323      12.42182827 
Au      14.33433744      14.18157937      22.05119391 
Au      21.87044685      21.13705880      15.82571393 
Au      12.70576901      21.16400562      18.74340905 
Au      13.68259446      17.12197668      22.45151799 
Au      20.90957182      17.21734304      12.08641716 
Au      22.33198882      19.96980241      19.82566290 
Au      12.24258652      20.03027797      14.78584944 
Au      20.05543192      21.86181638      20.39021266 
Au      14.52443889      21.92478634      14.21585402 
Ag      15.70480435      10.76847205      17.48857635 
Au      18.66500934      10.85754185      16.83038666 
Au      22.09011725      14.07529021      19.95361731 
Ag      12.38916672      14.19543569      14.49156582 
Au      17.08185727      21.84490120      21.42898176 
Au      17.53514087      21.86550848      13.14445447 
Ag      19.75375534      12.18291974      20.64949064 
Au      14.72023817      12.22615710      13.88946253 
Au      23.26442411      16.82284813      19.37171502 
Au      11.29336504      16.94197500      15.08113591 
Ag      20.10591646      20.35367442      12.52842346 
Au      14.51590929      20.19506740      22.07712143 
Au      20.68530483      23.30121703      13.52074380 
Ag      14.04599876      22.99557546      21.00739200 
Au      24.75896662      14.52281805      17.82721777 
Au       9.79354645      14.59136799      16.63870628 
Au      17.33860805      25.04722667      17.36957981 
Au      21.44706339      10.66715946      14.76512842 
Ag      12.91882891      10.83602666      19.58563888 
Au      16.21218755       9.69351721      13.75088688 
Au      18.27771902       9.67622943      20.49285309 
Au      10.42672634      18.35158398      21.19209630 
Au      24.14178348      18.36452175      13.36838931 
Au      24.54621024      20.42174232      16.91393650 
Au      10.01862137      20.42479221      17.67003639 
Au      23.76116226      18.50222321      22.10451541 
Ag      10.89184617      18.60523441      12.51045804 
S      19.40010824       9.52686256      14.65752165 
S      14.90785239       9.51322557      19.58487531 
Au      14.76328469      18.81279380      24.86321373 
Au      19.91124197      18.99284521       9.74729072 
Au      18.35903452      13.42175208       9.97459195 
Au      16.13845619      13.18934401      24.46094355 
Au      19.33201135      22.10581478      23.44150778 
Au      15.27902504      22.15779746      11.14846579 
S      18.58959389      24.03641340      12.73383202 
S      16.07625301      24.01707505      21.88360899 
S      24.18741318      12.91920482      19.46332020 
S      10.29483777      12.95012475      15.02430762 
Au      12.61874267      13.42303405      11.60388255 
Au      21.84863098      13.20084773      22.81574669 
S       9.02452665      16.14677070      18.24561867 
S      25.53347907      16.06157146      16.21307837 
S      11.30862998      17.20945716      23.08133436 
S      23.28280220      17.24820915      11.45120860 
S      22.86691950      22.72553171      14.20392472 
S      11.70308332      22.66699024      20.41192075 
S      22.28855347      19.48781589      23.66253178 
S      12.32801765      19.56882962      10.81656335 
S      19.09512281       8.95247476      18.42902041 
S      15.44672243       8.82582778      15.77790441 
S      16.00794473      13.49148400       9.71843809 
S      18.48842903      13.21090431      24.72761534 
S      18.44274115      20.45379431      24.87183700 
S      16.16259846      20.51612393       9.70094443 
S      24.23373558      21.34662984      19.08627813 
S      10.31645860      21.36598569      15.50010170 
S      14.99101645      25.22675473      17.51339090 
S      19.68810322      25.19458212      17.19638743 
S      16.97700148      10.49158741      11.66241901 
S      17.49615154      10.32586282      22.62056589 
S      15.99487490      16.93885536      25.57532010 
S      18.62362060      17.17498884       8.96330419 
S      22.08213138      15.30365542      23.85124472 
S      12.38494035      15.53150449      10.58999474 
S      23.48719904      11.86451414      14.81850068 
S      10.84766424      12.06271547      19.75529368 
S      13.77109257      13.17879529      24.19990838 
S      20.73219610      13.35413277      10.21477604 
S      21.67562795      11.04506430      21.89427682 
S      12.82508385      11.29603279      12.58501340 
S      20.64622973      23.53516673      22.06172243 
S      13.96834677      23.59149446      12.52620258 
S      25.21873605      17.17214789      20.79700053 
S       9.30142657      17.21727121      13.71666661 
S      13.78355233      20.90225543      24.30357719 
S      20.92467129      21.06082503      10.27374908 
S      25.52927216      19.48781255      14.94885357 
S       9.02875212      19.48747051      19.63069479 
C      18.89033096      14.47119640      25.99492802 
C      15.62212302      14.82800846       8.52702010 
C      23.48989087      23.00233193      18.83930617 
C      11.02678063      23.03452665      15.76286107 
C      20.92216119       8.96236886      18.60650740 
C      13.63252374       8.66876905      15.54930433 
C      10.70668969      15.48884271      22.88990153 
C      23.83725302      15.51369250      11.65709288 
C       8.21170198      15.14113155      19.54556764 
C      26.29108239      15.04087956      14.89072024 
C      22.87168576      21.21910066      23.81084816 
C      11.76019735      21.30575025      10.65154725 
C      14.71004524      26.26318423      19.00410778 
C      19.94637391      26.32319217      15.76951774 
C      23.88028921      15.49727248      24.16190556 
C      10.58056351      15.77076610      10.35572777 
C      19.81587313      16.14214112       8.02887317 
C      14.76491697      15.90119913      26.45371650 
C      19.67534052      25.03395253      21.65131128 
C      14.95280564      25.07533610      12.96213659 
C      21.21953065      11.61041813      10.50893140 
C      13.26108791      11.46083306      23.80829608 
C      24.47674713      11.02269969      16.11648708 
C      19.73403813       7.78107876      15.10560881 
C      14.41543947       7.81070937      19.08443315 
C      26.37808840      18.26026484      19.88792924 
C       8.13882382      18.25542986      14.68328943 
C      18.81668801      24.27287030      10.92998494 
C      15.80685344      24.20334082      23.68776599 
C      23.47124613      24.17029003      15.15941924 
C      11.18429405      24.18776961      19.52439530 
C      17.35565697      21.35814618       8.59326808 
C      21.03594499      10.01102484      23.26862776 
C      13.45075362      10.23297138      11.22866689 
C      11.96024823      20.72792518      24.36747193 
C      22.74593462      20.85084188      10.25210098 
C       9.10392819      13.26826163      13.66518942 
C      18.33555946       9.37307414      11.15703953 
C      16.11842578       9.18654608      23.01848411 
C       8.46321156      20.96712755      20.54874365 
C      26.11610640      20.96279380      14.03406379 
C      17.23083010      21.28377361      25.96729423 
H      16.72342801      20.49980084      26.54335994 
H      16.48888462      21.85307336      25.40167917 
H      17.78362251      21.94850200      26.64127233 
C      25.33958120      13.22549547      20.85526003 
H      26.31406435      12.79573703      20.59511306 
H      24.92629553      12.71550134      21.73464834 
H      25.44654522      14.29741724      21.05334647 
C       9.71870171      11.27347971      18.53810308 
H       8.90722320      11.97611549      18.31217828 
H       9.31110565      10.36540979      18.99733464 
H      10.23453401      11.02495536      17.60606086 
H      26.50256067      15.70779094      14.04555169 
H      25.61902268      14.23688869      14.57227658 
H      27.22809526      14.61926314      15.27233257 
H      26.80836149      17.67217164      19.06868458 
H      27.16648540      18.57211014      20.58261942 
H      25.87203584      19.14055233      19.48049307 
H      26.62292609      20.61468980      13.12656362 
H      26.83014600      21.49495445      14.67337869 
H      25.28061862      21.62083741      13.76780137 
H      24.24363539      23.65645183      18.38695947 
H      23.20552660      23.38452224      19.82705288 
H      22.59888143      22.94401655      18.20268849 
H      23.63499128      25.00619659      14.46968898 
H      24.42225800      23.88284950      15.62500500 
H      22.75529830      24.45586199      15.93685299 
H      20.09209175      25.46128764      20.73170653 
H      19.79112594      25.74443272      22.47831936 
H      18.61496843      24.79766815      21.50453099 
H      21.01064023      26.29498164      15.50727783 
H      19.66862235      27.33641247      16.08162328 
H      19.35161403      26.01595482      14.90410756 
H      17.81993667      24.31140951      10.47316281 
H      19.40144889      23.45442264      10.49593890 
H      19.33708972      25.22488166      10.77223516 
H      15.02550857      27.28608307      18.76861065 
H      15.26592091      25.88450717      19.86780119 
H      13.63592208      26.25022389      19.22389526 
H      14.91622222      25.76808590      12.11325303 
H      15.99184851      24.81680590      13.19247297 
H      14.48532736      25.53772542      13.83953281 
H      10.21814287      23.99537905      19.04200316 
H      11.91851241      24.47248486      18.76366256 
H      11.07261881      24.99742825      20.25525425 
H      16.79193239      22.02995770       7.93569277 
H      17.85252579      20.57997950       8.00065148 
H      18.10871518      21.92033478       9.15152634 
H      23.08886438      20.84236727       9.21152370 
H      23.05569820      19.92703372      10.75027468 
H      23.17655230      21.70998926      10.78014082 
H      23.35589887      14.92101833      10.86992925 
H      23.54598028      15.12115813      12.63834108 
H      24.92639314      15.48299864      11.54020071 
H      20.10252494      16.69098885       7.12446420 
H      19.30795734      15.20693772       7.76027994 
H      20.70345636      15.91172423       8.62538430 
H      21.06614445      11.04031754       9.58557055 
H      20.64682021      11.17080993      11.33111270 
H      22.28440618      11.61058248      10.77039614 
H      18.81329701       9.81062796      10.27294691 
H      17.89194300       8.40545262      10.89476607 
H      19.06085160       9.24670699      11.96846692 
H      13.42970710       7.87313026      14.82360656 
H      13.19219986       9.60926393      15.20086648 
H      13.19546087       8.39717534      16.51730837 
H      12.60286573       9.99505473      10.57604367 
H      13.85035531       9.31775028      11.68285849 
H      14.24285478      10.72773550      10.65832388 
H      15.86868192      14.46417509       7.52264876 
H      16.18832802      15.73980639       8.74533953 
H      14.54633245      15.03019881       8.59870606 
H       9.48543455      12.75865738      12.77168315 
H       9.00432553      14.34212155      13.47029960 
H       8.12951700      12.85130081      13.94411220 
H      10.24986069      15.09156822       9.56151509 
H      10.42534300      16.81213914      10.04619464 
H      10.02083812      15.57292431      11.27427054 
H       7.27230377      18.46046734      14.04323019 
H       8.59664182      19.20014511      14.99154553 
H      10.79756258      21.29710307      10.12696004 
H      12.50304603      21.85551404      10.05977998 
H      11.64436608      21.78956368      11.62604757 
H      11.30783268      23.43195835      14.78035551 
H      11.91434787      22.98653946      16.40517837 
H      10.25779677      23.66836126      16.21865666 
H      20.46818214       7.35605612      14.41299373 
H      18.77872754       7.24969002      15.00741954 
H      20.08698187       7.68247237      16.13718533 
H      24.83824064      10.07317982      15.70553513 
H      23.88762493      10.84439436      17.02067118 
H      25.32416517      11.67345665      16.36482061 
H      24.05036888      16.53262927      24.48234996 
H      24.46975830      15.29308804      23.26383097 
H      24.16200147      14.80308374      24.96204160 
H      19.96556276      14.67607009      25.92046624 
H      18.65565389      14.04764472      26.97842560 
H      18.32486870      15.39609328      25.83820809 
H      15.24639222      14.94343225      26.69006829 
H      13.88022409      15.71726326      25.83717059 
H      14.47989005      16.41976633      27.37610982 
H      12.20480442      11.49309173      23.51553130 
H      13.37695961      10.84500090      24.70751928 
H      13.85222046      11.04879747      22.98481179 
H      16.54805796       8.19713307      23.21376673 
H      15.40546396       9.13228893      22.18746572 
H      15.63257469       9.56284935      23.92604281 
H      20.64852907       9.08360211      22.82952576 
H      20.22827588      10.51324180      23.81027233 
H      21.86450907       9.78632257      23.94949267 
H      14.50031335       7.16366125      19.96583714 
H      15.09915904       7.45868488      18.30259761 
H      22.14039405      21.76287566      24.42219701 
H      22.95918959      21.69966743      22.83184483 
H      23.84681159      21.20695903      24.31109582 
H      11.52846581      21.51888239      23.74302377 
H      11.64609171      20.85825371      25.40970761 
H      11.63386354      19.74938343      24.00284747 
H      15.28017401      25.15108061      23.85326586 
H      16.78361467      24.23211033      24.18592236 
H      15.20642773      23.37869657      24.08782656 
H       7.72648621      21.48869499      19.92652804 
H       9.30731684      21.63025463      20.77746476 
H       7.27304015      14.74517034      19.14100942 
H       7.99780605      15.80929837      20.38922011 
H       8.85777588      14.31900730      19.87465503 
H       9.61983471      15.48622070      23.02984707 
H      11.18923670      14.88448477      23.66729952 
H      10.96598469      15.08807943      21.90335899 
H      21.35812634       8.90436785      17.60058751 
H      21.21745031       8.08604543      19.19494710 
H      21.27150875       9.87522406      19.10138514 
H      13.38682532       7.77264161      18.71466834 
H       7.98724969      20.62649317      21.47549207 
H       7.82404072      17.69294849      15.56989780 
