322
Properties=species:S:1:pos:R:3 i=236 optimized=T E=-4206.919404958 pbc="F F F" jobid=102_44-Ag-09_8-000007-PBE
Au      16.82360401      16.98369901      15.80101622 
Au      17.66200460      16.98223194      18.71180402 
Au      18.61302419      14.87593337      16.89137750 
Au      15.87073389      14.93153818      17.64714942 
Au      19.49753812      17.70630664      16.60115633 
Au      14.98823929      17.74245191      17.90429864 
Au      17.26287544      19.49318599      17.28087309 
Au      17.84906559      14.98220848      13.90820504 
Au      16.60217250      14.97807815      20.60472128 
Au      18.23215954      19.50737086      20.19940728 
Au      16.29528125      19.55085015      14.40004770 
Au      19.40186736      14.87121952      19.82365958 
Au      15.03873293      14.94865256      14.59800890 
Au      18.62565174      17.87329229      13.58778994 
Au      15.87597705      17.83642910      20.91990282 
Au      20.43081347      17.65520914      19.53647005 
Ag      14.08465346      17.75245409      15.04637297 
Au      21.34016843      15.60476089      17.68910753 
Au      13.11760604      15.71823819      16.84521764 
Au      13.89442843      15.70347372      19.79402259 
Au      20.55850276      15.67323499      14.73303866 
Au      15.44909553      20.29321913      19.42539850 
Au      19.09609776      20.29112518      15.14271106 
Au      20.05466466      20.33232779      17.99231604 
Au      14.46490622      20.37391756      16.56287764 
Au      17.63842633      12.66259650      18.78233036 
Au      16.82275711      12.73990945      15.67104877 
Au      15.94029706      17.07221116      12.82628943 
Au      18.54780688      17.01750106      21.71813628 
Au      19.65282268      12.89859791      15.10048444 
Au      14.78949206      12.90721006      19.38498360 
Au      13.14541778      18.51473334      20.01376437 
Au      21.38323495      18.48293511      14.53160727 
Ag      20.40322815      12.83597721      17.91665607 
Au      14.07326314      12.96292444      16.54650739 
Au      22.18195813      18.48210302      17.30316607 
Au      12.28334617      18.56012991      17.25318747 
Au      17.78636420      22.06519420      18.61566534 
Au      16.81792451      22.07247088      15.95941512 
Au      20.43224041      19.27411496      22.01247847 
Au      14.09931666      19.33165834      12.57839603 
Au      18.76303257      14.24606439      22.52881794 
Au      15.75430419      14.29257301      11.93467025 
Au      17.23596994      19.37071964      11.58500077 
Ag      17.20465553      19.27059176      23.02591673 
Au      18.25431465      16.08150181      11.26247911 
Au      16.24754663      16.07748338      23.25957800 
Au      21.35541538      16.28403244      21.83191673 
Au      13.12648278      16.39100531      12.72884343 
Au      23.18062065      16.42054181      15.54094931 
Au      11.29282414      16.46047234      19.02210835 
Au      22.38084218      13.64280047      15.98140935 
Au      12.07854224      13.68993985      18.54479745 
Au      14.97068854      22.78222597      18.18718778 
Ag      19.62617393      22.78806183      16.39054555 
Ag      17.74662365      12.27493681      12.92068503 
Au      16.63457259      12.28073891      21.53336933 
Au      20.16201926      14.04937745      12.47700324 
Au      14.27644168      14.10244015      22.04851557 
Au      21.84119787      21.01792536      15.87176623 
Au      12.70208697      21.07370379      18.72067587 
Au      13.60597595      17.06670428      22.45211762 
Au      20.88758872      17.00267592      12.12267234 
Au      22.31481846      19.85130829      19.83095581 
Au      12.24733474      19.97836062      14.70302377 
Au      20.05294169      21.77901712      20.38035111 
Au      14.52965277      21.83764794      14.16655742 
Au      15.72544601      10.80159328      17.50074968 
Au      18.65236730      10.76350791      16.87918718 
Ag      22.09027561      14.03904047      20.05360099 
Au      12.35915509      14.14621172      14.48529180 
Au      17.05633475      21.75398076      21.41437288 
Au      17.53965724      21.82514257      13.18433920 
Au      19.73490347      12.11371652      20.62789806 
Ag      14.68668341      12.17447011      13.78137295 
Au      23.21350884      16.73707582      19.43755016 
Au      11.27089242      16.88997186      15.11708477 
Au      20.08023745      20.22182583      12.53050799 
Au      14.48755487      20.20460937      22.03032586 
Au      20.72298119      23.19905281      13.57966026 
Au      13.91924330      23.19324637      21.08542903 
Au      24.68344064      14.40869184      17.89372249 
Au       9.72733747      14.57373617      16.67600645 
Au      17.46046440      24.89634583      17.35834310 
Au      21.46612059      10.61396365      14.80927893 
Au      12.96946046      10.60004778      19.59510862 
Au      16.12586697       9.66087972      13.73812276 
Au      18.24379490       9.57424211      20.56146824 
Ag      10.49425237      18.27783749      21.18514542 
Au      24.13133137      18.21928846      13.35961687 
Ag      24.45560009      20.24899171      16.95036214 
Au       9.99819935      20.39693014      17.67529157 
Au      23.71737402      18.40373970      22.14866908 
Au      10.83080789      18.58138745      12.38729357 
S      19.40050791       9.50607405      14.73948505 
S      15.01857360       9.45446756      19.59693790 
Au      14.73834977      18.76668005      24.85709414 
Ag      19.80699044      18.74600691       9.90491377 
Au      18.33459312      13.16859183      10.01493005 
Au      16.11188097      13.15352627      24.46765913 
Au      19.26382181      21.99717923      23.44568621 
Au      15.36048625      22.19091553      11.14043259 
S      18.64953544      23.97955061      12.77849503 
S      16.01381035      23.92984442      21.87734430 
S      24.14975041      12.74624295      19.47795081 
S      10.27052637      12.98951860      15.00927703 
Au      12.58875853      13.30310374      11.61645271 
Au      21.84916739      13.18844042      22.90126792 
S       8.97604185      16.09379065      18.32251584 
S      25.46646603      16.00406400      16.33548634 
S      11.27889360      17.11057162      23.18753986 
S      23.23742619      17.10423972      11.45528878 
S      22.88518063      22.62688039      14.32890704 
S      11.74021425      22.62527121      20.39554391 
S      22.24384161      19.42412372      23.68220089 
S      12.32806777      19.57974111      10.86413132 
S      19.05976505       8.82972345      18.49903276 
S      15.31579952       8.93895543      15.81095303 
S      15.98538036      13.23603991       9.73704835 
S      18.46334216      13.18764935      24.72391411 
S      18.39859377      20.38769629      24.92688592 
S      16.20956644      20.53287569       9.68971450 
S      24.25613617      21.20369177      19.19981160 
S      10.33947430      21.32796669      15.51218364 
S      15.10537205      25.10021274      17.45472756 
S      19.80658804      25.12338242      17.25220760 
S      16.93293216      10.26708832      11.61256851 
S      17.43248343      10.25542511      22.67214147 
S      15.94316891      16.88219071      25.58589673 
S      18.50415736      16.94226946       8.97209256 
S      22.10232494      15.27373767      23.94562713 
S      12.40335114      15.40825623      10.57742818 
S      23.50093287      11.81403882      14.79656795 
S      10.94088828      11.81477869      19.63577185 
S      13.74269719      13.13684784      24.21980064 
S      20.69627351      13.11347349      10.29565101 
S      21.60380118      11.07703605      21.89271227 
S      12.71981068      11.14446959      12.53573278 
S      20.59484888      23.43208424      22.08003918 
S      14.04929972      23.59803417      12.54311383 
S      25.17248243      17.04389764      20.86457570 
S       9.34183363      17.25335850      13.65841087 
S      13.77444783      20.84989851      24.28201825 
S      20.84472117      20.91615429      10.32713095 
S      25.51783860      19.32840414      14.93822900 
S       9.02172675      19.47547887      19.63996232 
C      18.86063388      14.44834062      25.99200092 
C      15.61801942      14.53221722       8.49589816 
C      23.56704992      22.88933123      18.98280518 
C      11.07891890      22.98384158      15.77194223 
C      20.88467203       8.81124044      18.69372240 
C      13.48971439       8.90169504      15.63034485 
C      10.67628369      15.39197697      22.96669468 
C      23.83465862      15.37837784      11.61613178 
C       8.19971234      15.05164010      19.61790989 
C      26.30121586      15.04268186      15.01545171 
C      22.83907440      21.15315615      23.80352602 
C      11.79026848      21.32992936      10.77426629 
C      14.81802743      26.21751959      18.88416444 
C      20.05056650      26.30297492      15.86250727 
C      23.90685278      15.47157910      24.21260218 
C      10.60980431      15.64455630      10.27091567 
C      19.71683286      15.91766697       8.05055479 
C      14.67647898      15.86870458      26.44070164 
C      19.63628071      24.92784774      21.62904455 
C      15.04377526      25.04700993      13.06393333 
C      21.17528686      11.37039396      10.60868682 
C      13.23101217      11.41459816      23.85099211 
C      24.55775314      10.97731599      16.04344026 
C      19.71180672       7.74908080      15.16148372 
C      14.66957718       7.72374276      19.10332378 
C      26.34684229      18.12002393      19.95849894 
C       8.16942557      18.34939290      14.54213937 
C      18.91052724      24.19745231      10.97760085 
C      15.79701991      24.12975037      23.68582265 
C      23.45797307      24.07400771      15.30080755 
C      11.11458982      24.09352443      19.49083904 
C      17.47439453      21.31832929       8.62154904 
C      20.93932267      10.01688389      23.23302165 
C      13.31998116      10.09832479      11.15229144 
C      11.95100911      20.67300361      24.34046147 
C      22.67168389      20.75369001      10.32760250 
C       9.09827553      13.31217137      13.63781630 
C      18.26842316       9.06749212      11.23995175 
C      16.05798837       9.12054567      23.09015113 
C       8.45728686      20.94852351      20.57411724 
C      26.11605432      20.81236004      14.04265347 
C      17.23246124      21.25003911      26.04922555 
H      16.75606584      20.47949601      26.66815126 
H      16.45824756      21.79324090      25.50103357 
H      17.80026523      21.93988602      26.68345977 
C      25.34724001      13.00183198      20.84555210 
H      26.31665515      12.58373763      20.55158527 
H      24.95976850      12.46614533      21.72109535 
H      25.45876665      14.06596885      21.08013590 
C       9.91069270      11.03043557      18.33332322 
H       9.06705203      11.70084667      18.12810147 
H       9.54489530      10.07212076      18.71922404 
H      10.47585012      10.87692064      17.40945802 
H      26.52043165      15.73940854      14.19650264 
H      25.66518650      14.22844440      14.65251128 
H      27.23685794      14.63830743      15.41852531 
H      26.69901782      17.56673460      19.08000069 
H      27.18705849      18.33691189      20.62862167 
H      25.87588827      19.05691631      19.64574913 
H      26.62071924      20.48901237      13.12521826 
H      26.83586390      21.32616953      14.69128138 
H      25.28830501      21.48755834      13.79567556 
H      24.35504133      23.53039045      18.57089129 
H      23.25937927      23.26514353      19.96550477 
H      22.69938175      22.87794824      18.31301764 
H      23.62727616      24.91102198      14.61372493 
H      24.40292916      23.79650178      15.78406546 
H      22.72313226      24.35355968      16.06323423 
H      20.10414145      25.36876948      20.74074079 
H      19.69312666      25.63037936      22.46879062 
H      18.59073659      24.68576257      21.41116523 
H      21.12680706      26.35351298      15.65763081 
H      19.68955168      27.29097796      16.16840973 
H      19.52863271      25.97238333      14.95911397 
H      17.92234635      24.25525208      10.50439527 
H      19.48337561      23.36045950      10.56149579 
H      19.45569773      25.13566339      10.82088292 
H      15.12380468      27.22834119      18.59067820 
H      15.37834573      25.89222963      19.76598568 
H      13.74527809      26.20505870      19.11052305 
H      15.02041805      25.78307983      12.25183667 
H      16.07831585      24.76667563      13.28816797 
H      14.57371872      25.46654627      13.96127512 
H      10.16489221      23.81097620      19.01952243 
H      11.82399538      24.41369408      18.72124360 
H      10.94497929      24.90414250      20.20876993 
H      16.96759412      22.03335082       7.96314396 
H      17.93242077      20.52083991       8.02286189 
H      18.24877548      21.82504482       9.20325766 
H      23.01872805      20.91411245       9.29987887 
H      22.99249792      19.76521815      10.67046700 
H      23.08929963      21.52437655      10.98549981 
H      23.35047830      14.78744300      10.82951343 
H      23.57523739      14.96294670      12.59645198 
H      24.92146424      15.37579507      11.47540753 
H      19.98693988      16.45754324       7.13543748 
H      19.23971687      14.96271473       7.79518342 
H      20.61485029      15.72093315       8.64357393 
H      21.05485960      10.80179925       9.67953483 
H      20.57276973      10.92799157      11.40774150 
H      22.22957903      11.37047785      10.90971705 
H      18.76718211       9.41089066      10.32592938 
H      17.81850107       8.08422793      11.06270647 
H      18.98754046       9.00856234      12.06427733 
H      13.21561077       8.01101485      15.05306833 
H      13.11877505       9.79942966      15.12358622 
H      13.05041345       8.84660734      16.63463760 
H      12.48170845       9.90952536      10.47254391 
H      13.67603717       9.15477830      11.58352541 
H      14.14518017      10.57406153      10.61328657 
H      15.82419712      14.11202219       7.50448486 
H      16.22598048      15.42983332       8.65813212 
H      14.55265230      14.77846380       8.58531590 
H       9.48850139      12.79459083      12.75239043 
H       9.00563037      14.38530819      13.43894796 
H       8.12199014      12.89781480      13.91548159 
H      10.30807639      14.95942889       9.47029544 
H      10.46387366      16.68434095       9.95281231 
H      10.01766487      15.45402173      11.17034898 
H       7.37128032      18.62278404      13.84209106 
H       8.66127473      19.25306504      14.91376502 
H      10.81348343      21.36205135      10.27832278 
H      12.53384196      21.87329075      10.17741364 
H      11.71994944      21.78031739      11.76899290 
H      11.35380921      23.37921902      14.78679536 
H      11.97492258      22.92028449      16.40110676 
H      10.32720252      23.63047354      16.23830964 
H      20.36069865       7.30559043      14.39848649 
H      18.73529408       7.24882703      15.15729051 
H      20.16440248       7.63739458      16.15126031 
H      24.90468206      10.03008338      15.61523218 
H      24.01850883      10.79857327      16.97823403 
H      25.41196215      11.63425086      16.24807064 
H      24.08169770      16.51053071      24.51858157 
H      24.47701930      15.25989624      23.30383848 
H      24.20586180      14.78550114      25.01340206 
H      19.93716413      14.64925339      25.92768960 
H      18.61567982      14.02713587      26.97403113 
H      18.29901337      15.37445947      25.82931694 
H      15.13008593      14.89662660      26.67302230 
H      13.79389802      15.71627027      25.81220680 
H      14.39576331      16.38666196      27.36480290 
H      12.16730045      11.44152106      23.58614353 
H      13.37260291      10.80384143      24.74991760 
H      13.80033826      11.00186737      23.01263560 
H      16.48789071       8.13299459      23.29429472 
H      15.33868750       9.05537728      22.26652673 
H      15.57606429       9.50644206      23.99580436 
H      20.51984202       9.11645141      22.76776723 
H      20.15681133      10.52833897      23.80227039 
H      21.77526612       9.75084702      23.89021927 
H      15.63761791       7.20909375      19.05990448 
H      14.18989046       7.66191884      18.12209655 
H      22.10550980      21.71381332      24.39651916 
H      22.94290102      21.61279794      22.81596900 
H      23.80824700      21.14245423      24.31521877 
H      11.52136930      21.45633546      23.70511418 
H      11.63102451      20.81551705      25.37930577 
H      11.62898660      19.68791492      23.98882874 
H      15.26892821      25.07331128      23.86673692 
H      16.79622663      24.16685960      24.13759150 
H      15.22376361      23.29682469      24.10714662 
H       7.73467149      21.49919711      19.96104389 
H       9.30088650      21.59727303      20.83824573 
H       7.26323349      14.64524060      19.21858147 
H       7.98286372      15.70134382      20.47501351 
H       8.86279490      14.23635464      19.92604146 
H       9.59176987      15.38944958      23.12643754 
H      11.16560893      14.75762143      23.71495770 
H      10.91065854      15.01722006      21.96368794 
H      21.33382411       8.75744276      17.69359107 
H      21.16509477       7.92581728      19.27614922 
H      21.24072325       9.71522624      19.20019513 
H      14.03337737       7.25519481      19.86215086 
H       7.96378628      20.59452475      21.48710965 
H       7.75398760      17.78242240      15.38344316 
