322
Properties=species:S:1:pos:R:3 i=287 optimized=T E=-4286.3376562286 pbc="F F F" jobid=102_44-Ag-30_4-000008-PBE
Au      16.96876703      17.09436383      15.83972716 
Au      17.76604841      17.05384021      18.70265312 
Au      18.69020806      14.95489592      16.88412451 
Ag      15.96633127      15.05732790      17.67343865 
Au      19.64465490      17.81815473      16.60029666 
Ag      15.10343342      17.86662160      17.95865280 
Au      17.39231336      19.60996731      17.28511501 
Au      17.94940269      15.11833095      13.87917217 
Ag      16.70983364      15.08625276      20.58535559 
Au      18.33513817      19.57869066      20.14086294 
Au      16.47712306      19.64966246      14.44184579 
Au      19.50324978      14.89887232      19.81776548 
Au      15.19362176      15.06498590      14.69294509 
Ag      18.76697671      17.96833402      13.66205246 
Ag      15.98590774      17.94863212      20.86918264 
Au      20.54380611      17.72407261      19.51638237 
Au      14.23421116      17.81582687      15.02381255 
Au      21.43997399      15.67146840      17.67923136 
Au      13.23961993      15.83831278      16.90163738 
Au      13.99641884      15.88243477      19.78727218 
Au      20.65131865      15.82968321      14.72421642 
Au      15.50223117      20.39752125      19.41074280 
Ag      19.25042022      20.39005819      15.17953038 
Au      20.18974659      20.41544722      18.00418361 
Au      14.64299599      20.46772127      16.56758258 
Ag      17.69110830      12.77782651      18.75556991 
Au      16.91816558      12.79661889      15.79982777 
Ag      16.11562691      17.15425694      12.85624998 
Au      18.62225489      17.04929684      21.65785086 
Au      19.69703757      12.97024503      15.08111718 
Au      14.89382941      13.06492946      19.43204617 
Ag      13.21167260      18.65898580      20.02135734 
Ag      21.51085490      18.59384481      14.54448921 
Ag      20.43215377      12.90714291      17.90063944 
Au      14.19078047      13.07168618      16.65456937 
Au      22.34451912      18.57563250      17.30598013 
Au      12.44932274      18.67904863      17.26336705 
Au      17.93014298      22.17379457      18.60325734 
Ag      17.00806228      22.19065021      15.94832656 
Au      20.51395053      19.30698678      22.00206974 
Au      14.30039376      19.43051403      12.55238427 
Au      18.82639112      14.29623331      22.49497328 
Ag      15.75798157      14.36958278      11.97964865 
Au      17.31375985      19.49328341      11.64415688 
Au      17.48955491      19.36622912      22.97211403 
Au      18.36807154      16.24439321      11.28461092 
Au      16.34491323      16.25931964      23.24643945 
Au      21.43023784      16.28138948      21.79127350 
Au      13.30238576      16.43565817      12.73891317 
Au      23.27036365      16.45242022      15.54810375 
Ag      11.35071114      16.62346660      18.93456886 
Au      22.38493069      13.69126963      15.91743387 
Au      12.15741536      13.84209670      18.55843713 
Au      15.10640343      22.85464035      18.08088083 
Ag      19.82271395      22.89009777      16.47977257 
Au      17.80461478      12.42019201      12.96258528 
Au      16.70050432      12.37007022      21.49899841 
Au      20.26047327      14.24926934      12.46075965 
Au      14.41161525      14.28734537      22.05146212 
Au      21.98661608      21.09622179      15.92491217 
Ag      12.79839410      21.20936123      18.70036006 
Au      13.74057463      17.17832472      22.42842297 
Ag      21.02565058      17.15958896      12.11503307 
Au      22.39544958      19.93111702      19.88725172 
Au      12.43787996      20.04102362      14.70230936 
Au      20.13761891      21.84191581      20.44430177 
Au      14.77633660      21.93859095      14.15105464 
Ag      15.74327638      10.81436864      17.62311932 
Ag      18.70607306      10.77823660      16.85484933 
Ag      22.20215007      14.05048306      19.99294954 
Ag      12.50378454      14.22298318      14.52157982 
Au      17.15289852      21.83461574      21.38982364 
Ag      17.71716989      21.89129698      13.19420261 
Ag      19.83403158      12.18311286      20.67300493 
Au      14.83370638      12.25892842      13.94756372 
Au      23.30948844      16.81261956      19.43562142 
Au      11.41531068      16.93954308      15.10128521 
Au      20.17967645      20.19234230      12.53951699 
Au      14.61638813      20.24012745      22.02861842 
Au      20.72534864      23.26414623      13.59475515 
Ag      14.18014003      23.05269689      20.95921446 
Ag      24.59468105      14.56659106      17.82234062 
Au       9.85716783      14.70053954      16.64622090 
Au      17.60277921      25.00023759      17.34169076 
Au      21.38858785      10.58761420      14.81373216 
Ag      12.88990640      10.96060147      19.67261947 
Ag      16.51488852       9.81699275      13.98564528 
Au      18.35235279       9.68978090      20.54908852 
Au      10.45162122      18.48091120      21.04937774 
Ag      24.23122069      18.34185885      13.50346967 
Au      24.68391708      20.39531748      17.05216551 
Au      10.16765640      20.54464403      17.53026919 
Au      23.78339695      18.41837334      22.16260658 
Au      11.01345227      18.66492685      12.36778381 
S      19.37598293       9.38320773      14.68778651 
S      14.86422727       9.62054182      19.72701573 
Au      14.78209566      18.84860754      24.84211467 
Ag      19.89672631      18.93996505       9.84844964 
Au      18.46325140      13.33798002      10.03339407 
Au      16.19297074      13.27793955      24.45881603 
Ag      19.38608006      22.04170742      23.36991402 
Ag      15.45091301      22.16444607      11.20774597 
S      18.68911716      24.15324292      12.81231327 
S      16.23095315      24.03524174      21.85685066 
S      24.23974306      12.77058124      19.40270204 
S      10.39405233      13.02500172      15.07253224 
Au      12.77393644      13.36081530      11.65438848 
Au      21.96451157      13.10783392      22.80139771 
S       8.99288452      16.26845399      18.18423211 
S      25.59265553      16.08074803      16.19222920 
S      11.31937170      17.34605945      22.93200493 
S      23.42439299      17.33583789      11.45473219 
S      22.90638352      22.63137325      14.23046966 
S      11.83786338      22.78239857      20.38904697 
S      22.29017824      19.39573800      23.71062844 
S      12.52957659      19.61712864      10.82814492 
S      19.15738950       8.89545458      18.50867923 
S      15.63322946       8.84373220      15.98212474 
S      16.12624782      13.37678731       9.70084854 
S      18.54095432      13.29105822      24.71602650 
S      18.50304803      20.42202554      24.93725155 
S      16.33439766      20.54844564       9.64326830 
S      24.31510252      21.30678063      19.22067282 
S      10.57207967      21.49058747      15.38820527 
S      15.24551766      25.19009016      17.42722023 
S      19.94484498      25.26368897      17.25928830 
S      17.03102230      10.48065026      11.70415229 
S      17.59113209      10.39452708      22.66792773 
S      16.00815659      16.99921097      25.61848792 
S      18.59991774      17.11139205       8.99937540 
S      22.17849499      15.19829484      23.85574148 
S      12.56800160      15.45425337      10.60484319 
S      23.43378835      11.77998608      14.81425939 
S      10.83965217      12.22742751      19.82245169 
S      13.82787189      13.26383814      24.19478414 
S      20.83903741      13.32876144      10.29460816 
S      21.79210235      10.98634598      21.81182260 
S      12.96599837      11.24782085      12.67609515 
S      20.82162894      23.52443983      22.04436496 
S      14.08832972      23.65820521      12.58435492 
S      25.26443921      17.08784834      20.86853485 
S       9.50686697      17.35109886      13.63627584 
S      13.84377452      20.94203139      24.24945633 
S      20.93059234      21.07843246      10.35988620 
S      25.67424648      19.52063972      15.07852050 
S       9.11109235      19.64267939      19.46674435 
C      18.95333108      14.58215799      25.94879050 
C      15.76684323      14.65838300       8.44088997 
C      23.58600046      22.96551516      18.95129459 
C      11.35355158      23.12086371      15.68495263 
C      20.98459416       8.82653848      18.68742411 
C      13.82636636       8.69998619      15.67885136 
C      10.71415881      15.62379652      22.76096273 
C      24.01839625      15.59805760      11.52339181 
C       8.17247485      15.26378083      19.48277846 
C      26.32371359      14.99368115      14.90544781 
C      22.88069322      21.12154696      23.89341785 
C      11.97851304      21.35764419      10.65811385 
C      14.95477994      26.25951936      18.89288062 
C      20.20509414      26.41965597      15.85399300 
C      23.97813487      15.41685211      24.13953156 
C      10.76716005      15.68897825      10.34050804 
C      19.78493531      16.07288994       8.05757886 
C      14.76628368      15.95285179      26.46914602 
C      19.88812060      25.03701619      21.59062848 
C      15.04580691      25.15772326      13.03266808 
C      21.39194959      11.61314040      10.63425120 
C      13.33589148      11.54465373      23.78495112 
C      24.46407613      10.94101535      16.08133853 
C      19.74102007       7.65139209      15.16646275 
C      14.38716218       7.91105887      19.23679233 
C      26.43477966      18.18427937      19.98296057 
C       8.35119345      18.44485808      14.54364006 
C      18.98833092      24.39841285      11.01691664 
C      15.91079587      24.21304082      23.65449681 
C      23.58949312      24.07204655      15.13953907 
C      11.34518092      24.31428433      19.50133556 
C      17.58396737      21.39507215       8.59940473 
C      21.15795349       9.90490608      23.15319900 
C      13.57018919      10.15101197      11.33672029 
C      12.01575815      20.81286875      24.27512940 
C      22.75735450      20.90926886      10.31503995 
C       9.21945302      13.30769762      13.69065531 
C      18.44685604       9.46792594      11.13832765 
C      16.23393429       9.24948131      23.11814269 
C       8.57421721      21.13755469      20.37892768 
C      26.22211729      21.02046104      14.17748927 
C      17.25838810      21.26842657      25.98497015 
H      16.71256887      20.50145422      26.54847421 
H      16.54780265      21.85116101      25.39324395 
H      17.79514179      21.92837796      26.67688822 
C      25.44971098      13.04136204      20.75756266 
H      26.41304672      12.61325719      20.45697710 
H      25.07718642      12.52388799      21.65022971 
H      25.57631976      14.10776004      20.97468556 
C       9.69371352      11.44641554      18.61585010 
H       8.89669827      12.16278518      18.38174528 
H       9.26765147      10.55345447      19.08778429 
H      10.20376039      11.17441335      17.68721555 
H      26.57343698      15.61158092      14.03408498 
H      25.63139229      14.19927159      14.60726730 
H      27.24073111      14.55218936      15.31332056 
H      26.89916751      17.59455596      19.18375310 
H      27.19631479      18.51634101      20.69785615 
H      25.92815943      19.05132779      19.54825685 
H      26.74175168      20.68998994      13.27005616 
H      26.91897253      21.58066166      14.81122554 
H      25.36904190      21.65171921      13.90127081 
H      24.36089011      23.61760880      18.53288825 
H      23.25753691      23.34572874      19.92626002 
H      22.72388897      22.91171621      18.27556212 
H      23.77074609      24.88389683      14.42592322 
H      24.53767307      23.75732365      15.59310680 
H      22.90090977      24.40577345      15.92301614 
H      20.26391281      25.40822911      20.63007350 
H      20.07223007      25.78217361      22.37395919 
H      18.81291964      24.83750358      21.51393264 
H      21.28690488      26.49666769      15.69050364 
H      19.80576959      27.40334355      16.12359110 
H      19.72768158      26.05299252      14.93949473 
H      18.01265083      24.50365210      10.52636644 
H      19.53424271      23.54919513      10.58972124 
H      19.56957374      25.31744047      10.87994725 
H      15.28615676      27.27359428      18.64177310 
H      15.49340986      25.89119400      19.77191039 
H      13.87744807      26.26256717      19.09653183 
H      14.90158679      25.89411447      12.23305290 
H      16.11317686      24.93893782      13.14741708 
H      14.65042856      25.55310421      13.97543870 
H      10.35072687      24.15522683      19.06649454 
H      12.05122655      24.55514105      18.69993167 
H      11.29916799      25.14440896      20.21549402 
H      17.05560713      22.09133756       7.93749736 
H      18.09384679      20.63173849       7.99795714 
H      18.32451718      21.93811367       9.19302032 
H      23.09238931      21.21573446       9.31681917 
H      23.07520323      19.87861549      10.50297446 
H      23.18808782      21.57617902      11.07076255 
H      23.54278166      15.04370616      10.70594390 
H      23.75264787      15.12765668      12.47675787 
H      25.10606087      15.59083079      11.39131485 
H      20.02391426      16.60110611       7.12708449 
H      19.29925519      15.11448898       7.83245014 
H      20.70287806      15.88428994       8.62233815 
H      21.27543018      11.01904193       9.72056775 
H      20.82478102      11.16477698      11.45551812 
H      22.45175699      11.66244438      10.91095949 
H      18.91543873       9.97538053      10.28742062 
H      18.04547135       8.50043873      10.81281497 
H      19.17086604       9.31268234      11.94569560 
H      13.65382273       7.89253577      14.95786909 
H      13.40849317       9.63354280      15.28696439 
H      13.33131504       8.45010684      16.62466158 
H      12.70952602       9.89684792      10.70727030 
H      13.97592784       9.24548333      11.80389910 
H      14.35146312      10.63154573      10.74002478 
H      16.02572770      14.25694907       7.45445088 
H      16.32889686      15.58047946       8.62841361 
H      14.69087851      14.86706180       8.48568730 
H       9.59745509      12.75341857      12.82260858 
H       9.14168685      14.37282382      13.44703358 
H       8.23465754      12.92182113      13.97760096 
H      10.45320936      15.00714318       9.54178842 
H      10.61419509      16.73060656      10.03171789 
H      10.19408043      15.49130563      11.25066302 
H       7.56632709      18.76030797      13.84645513 
H       8.86058726      19.32304390      14.95149878 
H      11.00074523      21.35825491      10.16284590 
H      12.71213719      21.87910069      10.02982072 
H      11.90497289      21.85680031      11.62880417 
H      11.66033099      23.51817017      14.70964525 
H      12.23703260      23.02839646      16.32830028 
H      10.61047971      23.78088530      16.14601127 
H      20.50245491       7.23201261      14.50094830 
H      18.80092039       7.09694975      15.05179528 
H      20.06316169       7.57947647      16.21015455 
H      24.75713483       9.96181994      15.68606427 
H      23.93128995      10.82577655      17.02978495 
H      25.35494346      11.55856258      16.24807448 
H      24.13965714      16.45378419      24.45940749 
H      24.55825566      15.22002168      23.23372879 
H      24.27779621      14.72479037      24.93506071 
H      20.03095228      14.77289981      25.87292865 
H      18.71158615      14.18729946      26.94252824 
H      18.39702518      15.50782045      25.76677341 
H      15.25604739      15.00763950      26.73631184 
H      13.90701299      15.74185275      25.82592700 
H      14.43847334      16.47743382      27.37369390 
H      12.28524621      11.57093879      23.47194234 
H      13.43854876      10.92581003      24.68379973 
H      13.94601170      11.13969576      22.97136217 
H      16.67567678       8.26828318      23.32705249 
H      15.50502956       9.17275449      22.30297452 
H      15.76087270       9.64222352      24.02578460 
H      20.78110429       8.98794041      22.68344950 
H      20.34262758      10.38045711      23.70698429 
H      21.98713533       9.66689881      23.82868259 
H      14.62332856       7.24714025      20.07733083 
H      14.97751907       7.61568702      18.35979163 
H      22.15245396      21.65781331      24.51530802 
H      22.97545820      21.62101633      22.92462586 
H      23.85314812      21.09603374      24.39839112 
H      11.61686377      21.58014224      23.60101850 
H      11.68117724      21.00340087      25.30171507 
H      11.67572922      19.82339328      23.95554459 
H      15.36956949      25.15499106      23.80562961 
H      16.87131390      24.25448770      24.18242422 
H      15.30768783      23.38211005      24.03732283 
H       7.87348950      21.68544187      19.73811310 
H       9.43434772      21.76982835      20.63436802 
H       7.25964405      14.82064628      19.06904582 
H       7.90925880      15.94445151      20.30216540 
H       8.83569394      14.47552362      19.85760228 
H       9.62237646      15.62584907      22.85138547 
H      11.15935599      15.04357905      23.57816610 
H      11.01833338      15.18779449      21.80241754 
H      21.41897310       8.78190079      17.68012685 
H      21.25018803       7.92123488      19.24521095 
H      21.37364524       9.70658772      19.21149016 
H      13.31995239       7.83420054      19.01020031 
H       8.05975382      20.80846512      21.28920782 
H       7.91693234      17.85821062      15.36211663 
