322
Properties=species:S:1:pos:R:3 i=229 optimized=T E=-4361.8997319095 pbc="F F F" jobid=102_44-Ag-50_0-000003-PBE
Ag      16.88476819      17.01943453      15.80750840 
Ag      17.68164561      16.99505680      18.67067058 
Ag      18.63977365      14.96602766      16.83071009 
Au      15.91797608      14.94005394      17.60654544 
Ag      19.54971821      17.76602075      16.60302089 
Au      15.00317441      17.76589138      17.85770985 
Au      17.31129691      19.45564871      17.27054113 
Au      17.91184170      15.03625280      13.90082281 
Au      16.63147333      15.00928766      20.50926737 
Ag      18.21384258      19.51592593      20.14892477 
Au      16.37845919      19.62070644      14.33999481 
Au      19.46007392      14.99964075      19.84731458 
Ag      15.11511233      15.00867874      14.64053655 
Ag      18.70854571      17.90153346      13.65565307 
Au      15.86805898      17.87329833      20.81475157 
Ag      20.42033023      17.75770412      19.44367609 
Ag      14.14008256      17.82168885      15.03051995 
Au      21.36346954      15.75149849      17.60932933 
Au      13.17120950      15.77827886      16.78091581 
Ag      13.91104305      15.73212169      19.68416155 
Au      20.59775955      15.72869294      14.72398868 
Au      15.43445713      20.31790487      19.38000329 
Au      19.13107932      20.35326244      15.15776414 
Ag      20.06036516      20.35898754      17.95038815 
Ag      14.51549781      20.36237108      16.54742230 
Ag      17.62495895      12.76689146      18.72704221 
Ag      16.88816159      12.78433936      15.69631264 
Au      16.05665683      17.14319669      12.91546001 
Ag      18.54835156      17.07334028      21.59595368 
Ag      19.65490335      12.95783935      15.06087048 
Ag      14.77798848      12.93037536      19.33977715 
Au      13.10115235      18.51517679      19.92408621 
Au      21.39969767      18.53183327      14.54289635 
Au      20.36203475      12.96697414      17.86923742 
Au      14.15979680      12.96502015      16.48407968 
Ag      22.21710489      18.59108916      17.26152221 
Ag      12.30806276      18.62959131      17.18264968 
Au      17.78324742      22.02771232      18.63465791 
Au      16.81161935      22.03052349      15.96128608 
Au      20.48645140      19.19535274      21.93001190 
Au      14.15374152      19.37061390      12.57655562 
Au      18.70861937      14.33025180      22.51955391 
Au      15.84057311      14.45951099      11.89101869 
Ag      17.38717215      19.42364847      11.57273135 
Ag      17.17692624      19.26705412      22.92921791 
Au      18.31936804      16.24559100      11.28230280 
Au      16.26167529      16.19870175      23.17357988 
Ag      21.35616932      16.30029962      21.77845416 
Au      13.27365575      16.37360185      12.71508528 
Ag      23.22114386      16.47931810      15.53022619 
Au      11.26110472      16.51136440      18.83640514 
Ag      22.35892344      13.69754828      15.90023786 
Au      12.11708984      13.75740988      18.40687501 
Au      14.98441740      22.82306844      18.15913026 
Ag      19.59675555      22.83732615      16.43958393 
Au      17.77740190      12.40103672      12.91586518 
Au      16.69456287      12.32845882      21.44383325 
Ag      20.20007642      14.18833733      12.40932990 
Au      14.38830060      14.15133836      21.98851781 
Ag      21.83840709      21.09928122      15.71714068 
Au      12.73459019      21.11068513      18.70159976 
Au      13.60405184      17.03185739      22.31698450 
Au      20.96054703      17.08046147      12.09801337 
Ag      22.29440172      19.92442963      19.77706333 
Ag      12.29816454      20.00472198      14.68819845 
Au      19.99636031      21.71525739      20.41473265 
Ag      14.62566154      21.86890718      14.12028339 
Ag      15.76151853      10.77347563      17.50473869 
Au      18.73069704      10.83944741      16.89995125 
Au      22.12999906      14.16338150      19.90375256 
Au      12.41444343      14.20081816      14.43702591 
Au      16.97116131      21.73073434      21.42177835 
Ag      17.62274302      21.88479830      13.16351901 
Au      19.76571488      12.23022093      20.64824636 
Ag      14.80830489      12.27562801      13.71718622 
Ag      23.19454237      16.90336608      19.41658487 
Ag      11.37258871      16.95076237      14.97129559 
Ag      20.12257729      20.26339716      12.57011263 
Ag      14.44115841      20.21270019      21.98875494 
Ag      20.57822035      23.15486166      13.62026259 
Au      13.87352788      23.24195021      21.04750872 
Ag      24.59257582      14.61940558      17.85155411 
Ag       9.91724720      14.65243243      16.47289732 
Ag      17.34586686      24.74854767      17.30105166 
Ag      21.50653631      10.73281579      14.88141320 
Au      12.97101826      10.66586541      19.50771664 
Ag      16.41787177       9.79876075      13.85760837 
Au      18.21750381       9.69798515      20.64013564 
Au      10.38961892      18.28237052      21.09218132 
Ag      24.05297841      18.30187594      13.31343943 
Ag      24.47937208      20.40640090      16.84425462 
Au      10.04542118      20.45657764      17.61874440 
Ag      23.67578007      18.39803460      22.03320347 
Ag      10.95469247      18.51027771      12.41414152 
S      19.41770564       9.54720569      14.79743776 
S      14.99521220       9.50062497      19.66457576 
Ag      14.60358175      18.72560153      24.63111629 
Au      19.93825798      19.01903697       9.80246597 
Au      18.47621103      13.36104956       9.96950004 
Ag      16.15628264      13.26255297      24.30031848 
Au      19.18642177      21.95192312      23.44947610 
Ag      15.32925423      22.14598348      11.23565767 
S      18.54384152      24.14306506      12.75836701 
S      15.96444419      23.93908631      21.87622207 
S      24.17538368      12.91019620      19.52368509 
S      10.37646816      12.92053766      14.83899221 
Au      12.73520669      13.34134509      11.55236093 
Ag      21.72894689      13.41277738      22.81207275 
S       8.94364049      16.18828282      18.07705586 
S      25.55930293      16.09298744      16.20544830 
S      11.24302867      17.09592950      22.97165563 
S      23.28228868      17.12965555      11.31620667 
S      22.88512041      22.85729552      14.28923716 
S      11.69562148      22.71566453      20.31898919 
S      22.21612140      19.36438190      23.68745400 
S      12.45114858      19.53016806      10.82430018 
S      18.99825312       8.90595235      18.58548595 
S      15.44566321       8.87982724      15.82472878 
S      16.12206331      13.41953848       9.67085467 
S      18.55568550      13.33040439      24.73542479 
S      18.29929792      20.32111421      24.89873247 
S      16.23342120      20.56051255       9.67870057 
S      24.24265050      21.31690566      19.07316831 
S      10.36294071      21.40341803      15.46712943 
S      14.94130503      25.12748212      17.37497916 
S      19.73323415      25.17691643      17.22860670 
S      17.10206524      10.43102998      11.62446650 
S      17.40724555      10.36684775      22.76454439 
S      15.98948085      16.95141792      25.50475589 
S      18.69454194      17.17964278       9.00785731 
S      22.13735371      15.46458783      24.00025872 
S      12.50187805      15.45689721      10.53572803 
S      23.61119555      11.88791452      14.76397781 
S      10.95143567      11.89867816      19.48791806 
S      13.69695116      13.20660586      24.12305620 
S      20.84263740      13.31003970      10.17475497 
S      21.61747195      11.17484496      21.89107827 
S      12.92266742      11.16645957      12.43201578 
S      20.56172614      23.38451198      22.12650517 
S      13.90424573      23.61925004      12.54203655 
S      25.26962987      17.13201837      20.74199183 
S       9.31178073      17.22962927      13.63396838 
S      13.61046709      20.88630245      24.22627528 
S      20.95449618      21.08151612      10.36914992 
S      25.50514137      19.48246110      14.85319552 
S       9.03084587      19.48529214      19.55004900 
C      18.92121181      14.63193947      25.97162837 
C      15.75780566      14.71908833       8.43120101 
C      23.52468186      22.99891817      18.90766292 
C      11.12474895      23.05390100      15.71090716 
C      20.81816680       8.81852163      18.80403110 
C      13.63161703       8.82473860      15.53356894 
C      10.66267168      15.37529845      22.72689080 
C      23.89258212      15.41274595      11.53868190 
C       8.13227948      15.14887377      19.35381747 
C      26.32265037      14.99985253      14.94008700 
C      22.78326384      21.10298864      23.84821096 
C      11.85948670      21.25820642      10.64173940 
C      14.72569941      26.24695596      18.81796196 
C      19.90344298      26.34084728      15.81213952 
C      23.96008014      15.57514386      24.20685925 
C      10.70068135      15.68324489      10.26902652 
C      19.93657440      16.17246047       8.11080130 
C      14.81609707      15.85223078      26.39102119 
C      19.62065280      24.88517778      21.65407681 
C      14.84609625      25.12032711      13.02953410 
C      21.35486835      11.57109181      10.46066900 
C      13.15659945      11.49936311      23.71990106 
C      24.65541923      11.09404789      16.05612466 
C      19.73775738       7.80335631      15.28099870 
C      14.64072164       7.76768286      19.17358306 
C      26.39493231      18.29099637      19.86491694 
C       8.17135175      18.36962597      14.51552810 
C      18.87270573      24.39455037      10.96818387 
C      15.71627171      24.12509713      23.68251471 
C      23.29782059      24.33803113      15.29530932 
C      11.15001883      24.18213730      19.36164617 
C      17.43641247      21.44757115       8.61165538 
C      20.94463646      10.16549746      23.26605455 
C      13.57853768      10.17342155      11.03469083 
C      11.78059872      20.74366091      24.17640587 
C      22.77375133      20.84099808      10.36043479 
C       9.24015433      13.25101262      13.43763229 
C      18.52767056       9.35010892      11.23089432 
C      16.02394123       9.23013478      23.15000134 
C       8.47197013      20.94778580      20.50239414 
C      26.04671858      20.97857386      13.93701698 
C      17.07917769      21.15263569      25.98668311 
H      16.62184917      20.37144318      26.60711601 
H      16.29623897      21.66204693      25.41839825 
H      17.60762910      21.86866424      26.62582111 
C      25.34752134      13.26679579      20.88798397 
H      26.30430218      12.79203216      20.63902564 
H      24.94432983      12.82414520      21.80719216 
H      25.49634242      14.34466297      21.01817338 
C       9.94301165      11.10227659      18.17494753 
H       9.08451360      11.75353697      17.97013241 
H       9.59386971      10.13573843      18.55583267 
H      10.51470457      10.96240888      17.25295723 
H      26.58312648      15.61999833      14.07370783 
H      25.64006318      14.20066811      14.62900955 
H      27.23575408      14.56381052      15.36094583 
H      26.64861716      17.86251873      18.88854803 
H      27.30251299      18.39379177      20.47110938 
H      25.93894461      19.27663556      19.72964541 
H      26.47914325      20.66187891      12.98105233 
H      26.81749634      21.48479281      14.53022240 
H      25.20724011      21.66277285      13.76014735 
H      24.27017331      23.65802620      18.44969564 
H      23.27977223      23.36225149      19.91239441 
H      22.61101700      22.98865015      18.30139716 
H      23.36441098      25.20865354      14.63308724 
H      24.27244425      24.16782421      15.76826028 
H      22.54422473      24.51742238      16.07061360 
H      20.10916222      25.32279520      20.77526283 
H      19.66303652      25.58932245      22.49338694 
H      18.57819311      24.64858288      21.41634684 
H      20.97040486      26.44514214      15.58162183 
H      19.50103539      27.31483067      16.11203853 
H      19.37802363      25.97930827      14.92190768 
H      17.91158527      24.46563083      10.44483168 
H      19.46217436      23.57118831      10.55011672 
H      19.42388632      25.33434408      10.84719969 
H      14.99683434      27.25998746      18.49819439 
H      15.35048393      25.94292093      19.66323973 
H      13.67351870      26.22703508      19.12503431 
H      14.68077452      25.88516699      12.26185712 
H      15.91895792      24.91366864      13.11745788 
H      14.46242914      25.47624890      13.99259428 
H      10.20098912      23.92434213      18.87531541 
H      11.88980682      24.45356393      18.60112103 
H      10.99453426      25.01774473      20.05361679 
H      16.88229184      22.13035767       7.95767295 
H      17.96014653      20.69786651       8.00591313 
H      18.17280526      22.00822066       9.19360027 
H      23.12714502      20.87544830       9.32387730 
H      23.05978379      19.88604825      10.81302304 
H      23.21466433      21.66538038      10.93342423 
H      23.39463257      14.77561239      10.79808522 
H      23.67618002      15.03469012      12.54427454 
H      24.97497527      15.41251803      11.36511126 
H      20.21353876      16.71327979       7.19861681 
H      19.46626004      15.21403191       7.85634254 
H      20.82414455      15.98830750       8.72373189 
H      21.17815303      10.98494461       9.55188809 
H      20.82108760      11.12664469      11.30570455 
H      22.42894973      11.58634752      10.68194148 
H      19.03226502       9.75292838      10.34595798 
H      18.13365599       8.35202544      11.00522827 
H      19.22267015       9.28878439      12.07586950 
H      13.40329784       7.95546648      14.90601905 
H      13.27254140       9.73396440      15.03904803 
H      13.12523412       8.71862492      16.50138955 
H      12.75377453       9.96303757      10.34461469 
H      13.96798271       9.23521119      11.44832960 
H      14.38552770      10.69441361      10.51013959 
H      16.01821597      14.32489253       7.44192893 
H      16.32164596      15.63703691       8.62960558 
H      14.68161943      14.92644914       8.48086150 
H       9.68355320      12.81743297      12.53244796 
H       9.07479088      14.32555052      13.30140559 
H       8.28537946      12.75794893      13.65729592 
H      10.37791805      14.97769661       9.49480810 
H      10.54659346      16.71257878       9.92061120 
H      10.12872931      15.51782200      11.18666493 
H       7.29284912      18.52207645      13.87775077 
H       8.64007809      19.33615083      14.72286010 
H      10.89928823      21.22997696      10.11361383 
H      12.59476743      21.80872743      10.04119522 
H      11.73479133      21.75711646      11.60745675 
H      11.42191884      23.42638503      14.72271565 
H      12.01187877      22.99067460      16.35293405 
H      10.38204285      23.72566267      16.15455006 
H      20.02824421       7.24777371      14.38167535 
H      18.80776754       7.39081936      15.68942483 
H      20.52917049       7.72022579      16.03104750 
H      24.97277755      10.11069526      15.69177632 
H      24.12438623      10.98728767      17.00663939 
H      25.53711232      11.72688972      16.21493986 
H      24.19701440      16.58738569      24.55875950 
H      24.49331289      15.38779083      23.27034611 
H      24.27155856      14.84347368      24.96088561 
H      19.97509412      14.91814330      25.86784711 
H      18.74857126      14.19727146      26.96356253 
H      18.27901992      15.50963900      25.83439914 
H      15.34104976      14.92628540      26.65969585 
H      13.94420829      15.60561143      25.77789013 
H      14.49442491      16.37050315      27.30189294 
H      12.10445429      11.54019140      23.41493586 
H      13.25352205      10.87980955      24.61901545 
H      13.74877466      11.07461670      22.90345474 
H      16.45244438       8.24580693      23.37208196 
H      15.33104120       9.15666367      22.30403765 
H      15.51161623       9.61651245      24.03850246 
H      20.47204738       9.26947050      22.84601585 
H      20.20718725      10.72001760      23.85598282 
H      21.79026069       9.88034457      23.90362050 
H      15.52640580       7.18536588      19.45809055 
H      14.49946351       7.68275491      18.09056465 
H      22.04325365      21.64749528      24.44795001 
H      22.89090692      21.59241783      22.87514434 
H      23.74953163      21.09656566      24.36596510 
H      11.39110554      21.59516400      23.60634612 
H      11.40201519      20.78089754      25.20409347 
H      11.45497863      19.81255540      23.70213859 
H      15.21188691      25.08171804      23.86262065 
H      16.70638128      24.12905610      24.15510535 
H      15.10868578      23.30405801      24.07989651 
H       7.76690855      21.50768382      19.87663695 
H       9.31788312      21.58556927      20.78425598 
H       7.19776130      14.75672557      18.93553043 
H       7.90752107      15.78764650      20.21699318 
H       8.77528135      14.31937105      19.66693214 
H       9.57786428      15.35550830      22.88131694 
H      11.16655382      14.74972832      23.47398720 
H      10.91194825      15.01447632      21.72219077 
H      21.27816307       8.72191891      17.81270875 
H      21.05457590       7.93412529      19.40710253 
H      21.20347760       9.71705085      19.29886376 
H      13.76493748       7.39241406      19.71181130 
H       7.95795458      20.58500983      21.40000714 
H       7.86912618      17.89984536      15.45854997 
