322
Properties=species:S:1:pos:R:3 i=227 optimized=T E=-4399.7074746977 pbc="F F F" jobid=102_44-Ag-59_8-000004-PBE
Ag      16.89424661      17.02039968      15.91201174 
Ag      17.72093483      16.97071862      18.73865846 
Ag      18.66892365      14.94366841      16.92254149 
Ag      15.92896684      14.94505960      17.69702692 
Ag      19.56025874      17.74643397      16.66271931 
Ag      15.07828827      17.76987013      18.04094670 
Ag      17.33084019      19.46743555      17.38442808 
Ag      17.87063615      15.05397989      14.00754253 
Au      16.71597662      14.95300502      20.61737973 
Ag      18.25754762      19.45482185      20.21642761 
Ag      16.34892660      19.55791396      14.53366732 
Ag      19.50618211      14.92803767      19.82567534 
Ag      15.08940825      15.00538739      14.76727285 
Au      18.62598641      17.88522496      13.68759385 
Ag      15.92468319      17.79907383      20.91868212 
Ag      20.45793074      17.68533561      19.50294311 
Au      14.13048421      17.78163485      15.14938302 
Ag      21.41226758      15.69240153      17.61288662 
Au      13.22835665      15.76723013      16.98840139 
Ag      13.98419636      15.74488241      19.83440448 
Ag      20.54747422      15.74413365      14.80752970 
Ag      15.51996844      20.29389891      19.53056483 
Ag      19.14152709      20.30368673      15.25896682 
Au      20.10779460      20.31222179      18.03337509 
Au      14.56325477      20.37582384      16.69144963 
Au      17.69375424      12.80711111      18.79149523 
Au      16.84386996      12.81755461      15.78143678 
Ag      15.97074168      17.10978934      12.98118062 
Ag      18.58884278      16.97654089      21.62439084 
Ag      19.63790982      12.98761097      15.12263364 
Au      14.83817126      12.97657756      19.46077815 
Ag      13.19038213      18.54638202      20.14647012 
Au      21.39043031      18.51685198      14.59514849 
Ag      20.48556108      12.93394215      17.88990523 
Ag      14.10775523      12.97438889      16.65708833 
Ag      22.25538689      18.52150577      17.29621320 
Au      12.41535121      18.59853504      17.40237232 
Au      17.80535104      21.98229740      18.76042408 
Au      16.87835320      22.00459456      16.06970295 
Ag      20.51874512      19.14820724      22.03477757 
Au      14.09754326      19.40007184      12.75587782 
Ag      18.74837292      14.21589452      22.56421858 
Au      15.82672727      14.39989546      12.07132247 
Au      17.23688617      19.41607132      11.73698876 
Ag      17.39756191      19.20535706      23.01302709 
Ag      18.23557783      16.16165179      11.30217971 
Au      16.34607581      16.06018975      23.23782931 
Au      21.34502554      16.20688607      21.78421870 
Au      13.15324206      16.40391612      12.88949282 
Ag      23.24494663      16.48201169      15.54587646 
Ag      11.30158351      16.54222326      19.00727156 
Ag      22.37050362      13.70683657      15.80976963 
Au      12.12230540      13.79469087      18.60484602 
Ag      15.05741398      22.83743159      18.26203876 
Ag      19.64613013      22.80557530      16.54961556 
Ag      17.76581696      12.36300649      12.99993714 
Ag      16.77547134      12.20382290      21.49664127 
Ag      20.12826363      14.15353534      12.52215526 
Ag      14.45487726      14.06746114      22.12020838 
Ag      21.85514258      21.05904714      15.86560719 
Au      12.83249976      21.09363429      18.80632977 
Au      13.67472875      16.94035343      22.44320084 
Au      20.85792917      17.01055877      12.19996997 
Au      22.33041064      19.81420277      19.84550035 
Ag      12.22616151      19.97454362      14.87820899 
Au      20.07465025      21.65165326      20.52358469 
Ag      14.61365628      21.86313311      14.30794243 
Ag      15.77357251      10.80418374      17.62932251 
Au      18.69853908      10.87773980      16.98552934 
Au      22.18293680      14.13232409      19.90781926 
Au      12.39762624      14.22111001      14.65877401 
Ag      17.11444950      21.70281863      21.54455963 
Ag      17.58596976      21.82728894      13.28745566 
Au      19.75145166      12.15993060      20.63035466 
Ag      14.77325200      12.25632077      13.90159297 
Ag      23.21270726      16.86978351      19.46483158 
Ag      11.28734682      16.93252248      15.28921477 
Au      20.03842550      20.21146341      12.61199416 
Au      14.68079040      20.06407646      22.17628770 
Au      20.58554945      23.26744329      13.70215013 
Au      14.12118648      23.15725597      21.18558756 
Ag      24.57018418      14.55063210      17.84129611 
Au       9.72214463      14.63666764      16.80224939 
Ag      17.38154936      24.72081566      17.46761354 
Ag      21.55086643      10.81984992      14.89806822 
Au      12.98391680      10.72011431      19.68520694 
Ag      16.34200797       9.79352349      13.91624295 
Au      18.21645227       9.63184286      20.74232149 
Ag      10.48859495      18.20386920      21.31446192 
Au      24.09411301      18.29725235      13.35407914 
Au      24.54221781      20.34236422      16.89525054 
Ag      10.13637451      20.39368590      17.81076747 
Au      23.78787046      18.38767416      22.08763778 
Au      10.80557961      18.56834568      12.59954996 
S      19.45512755       9.64648848      14.89801722 
S      14.99456699       9.52501398      19.77285045 
Ag      14.78586130      18.60207389      24.78937047 
Ag      19.82032244      18.81921598       9.95753326 
Au      18.38356819      13.31748327      10.09299875 
Ag      16.30243635      13.06541011      24.34765976 
Ag      19.39393473      21.85040349      23.47761680 
Ag      15.26330534      22.06422666      11.37297124 
S      18.52540148      24.10733463      12.91557905 
S      16.16063294      23.96797731      22.04100389 
S      24.17830889      12.79869644      19.48140639 
S      10.31800572      13.04084764      15.15788656 
Ag      12.82219850      13.44757842      11.79877433 
Ag      21.72481865      13.31889940      22.82974421 
S       8.89376437      16.15271496      18.40809967 
S      25.58758065      16.02876836      16.23451261 
S      11.35908650      17.00976188      23.24259339 
S      23.20811466      17.15434233      11.46903409 
S      22.80487151      22.77648748      14.31650712 
S      11.92621695      22.63570768      20.48849120 
S      22.38130947      19.32888321      23.73431688 
S      12.28348251      19.60588695      11.07117373 
S      18.94483336       8.90948790      18.63680638 
S      15.42376961       8.93121164      15.93707248 
S      16.02609091      13.35969408       9.83350239 
S      18.68933513      13.10920057      24.79467488 
S      18.53025361      20.20703146      24.99713887 
S      16.12167404      20.42381594       9.82188277 
S      24.23733824      21.22580474      19.07288514 
S      10.34369215      21.42895658      15.61902357 
S      15.00254000      25.19762289      17.51013076 
S      19.77630898      25.11714802      17.43798945 
S      17.05319028      10.34800893      11.68486108 
S      17.45612617      10.20908691      22.90606055 
S      16.15528703      16.79313302      25.58672358 
S      18.49085226      17.08269572       8.96618829 
S      22.08560456      15.39787790      23.99722901 
S      12.51442487      15.56103818      10.67872048 
S      23.67867153      11.91332378      14.67438684 
S      10.97450509      11.96851683      19.76765572 
S      13.86234898      13.03796790      24.27867760 
S      20.74876945      13.28628365      10.26008665 
S      21.65639400      11.13415057      21.81525413 
S      12.84750697      11.21399660      12.68484891 
S      20.76866173      23.34402447      22.12984015 
S      13.91732527      23.58648990      12.69295158 
S      25.30678335      17.08524705      20.80751169 
S       9.27952821      17.28130491      13.85701120 
S      13.83356799      20.79926138      24.37319057 
S      20.80592102      21.00642815      10.43371740 
S      25.49051506      19.44888838      14.90025437 
S       9.08172855      19.46878229      19.80936033 
C      19.02866429      14.38516278      26.06882793 
C      15.63425230      14.64023722       8.58289449 
C      23.49026358      22.88707761      18.87920748 
C      11.11923824      23.07448103      15.87079735 
C      20.75862471       8.70696050      18.81447722 
C      13.60633317       8.81658433      15.68709656 
C      10.75900342      15.28443461      23.06270299 
C      23.85798553      15.44576593      11.60336215 
C       8.15962443      15.09865932      19.72036244 
C      26.34032783      14.94796999      14.95333393 
C      22.97152748      21.05558271      23.91886985 
C      11.67591904      21.33300872      10.96894407 
C      14.82154288      26.32127838      18.95669076 
C      19.97674126      26.32086076      16.06007351 
C      23.90612148      15.52459852      24.20164274 
C      10.70429968      15.71744098      10.41354894 
C      19.66659666      16.06223785       7.99098775 
C      14.98424253      15.69245026      26.47354878 
C      19.83736461      24.86199129      21.68504456 
C      14.87738567      25.09009882      13.13189087 
C      21.24684286      11.53902628      10.52369727 
C      13.28973559      11.34470423      23.85358447 
C      24.76740898      11.13969531      15.94146682 
C      19.81722915       7.89427534      15.33497684 
C      14.61793139       7.79112549      19.30509912 
C      26.45248016      18.21008006      19.92113066 
C       8.13648976      18.42270721      14.72801009 
C      18.82536339      24.35232041      11.12079313 
C      15.83344153      24.14162886      23.83900549 
C      23.36226850      24.22966260      15.29025689 
C      11.34465254      24.13487191      19.60317388 
C      17.36075024      21.24489032       8.74590211 
C      21.03334169      10.04894815      23.15672082 
C      13.45967404      10.18429730      11.29070116 
C      12.00362306      20.68767095      24.30023806 
C      22.63766925      20.91201967      10.46279252 
C       9.15674329      13.32055409      13.76659008 
C      18.44689289       9.20134313      11.35087838 
C      16.08987464       9.03786789      23.25514881 
C       8.60918235      20.95593805      20.77781941 
C      25.99738000      20.95140919      13.98044748 
C      17.29773941      21.03496486      26.07944325 
H      16.80898651      20.25655938      26.67884125 
H      16.53738245      21.57471006      25.50781556 
H      17.82533997      21.72971673      26.74256868 
C      25.37837710      13.11107704      20.83424119 
H      26.33329838      12.65188877      20.55115969 
H      24.99569493      12.63375443      21.74482250 
H      25.52341314      14.18404357      21.00204723 
C       9.86725449      11.18552716      18.52974710 
H       9.02349344      11.86559925      18.35957451 
H       9.50799505      10.23827356      18.94789728 
H      10.38145410      11.00962284      17.58041167 
H      26.61259835      15.58036389      14.09952571 
H      25.64580663      14.16651880      14.62276757 
H      27.24494947      14.48815865      15.36708789 
H      26.86584376      17.65809449      19.06870362 
H      27.25660018      18.49841765      20.60745849 
H      25.94030780      19.10659610      19.55936617 
H      26.47840114      20.62559674      13.05093702 
H      26.72245759      21.49378533      14.59858821 
H      25.13588900      21.59184222      13.75737453 
H      24.23004762      23.55364496      18.42271015 
H      23.23191403      23.24358547      19.88391052 
H      22.57974700      22.84848599      18.26915368 
H      23.45791126      25.09268245      14.62207283 
H      24.34338664      23.98451453      15.71515409 
H      22.65903079      24.45741836      16.09888298 
H      20.20780213      25.22898635      20.72063163 
H      20.03189699      25.60646636      22.46635735 
H      18.76097632      24.67158103      21.61522363 
H      21.04901498      26.44440805      15.86696960 
H      19.55059058      27.28190061      16.36840092 
H      19.48778870      25.97248559      15.14445327 
H      17.84992399      24.46599662      10.63171983 
H      19.36344339      23.49874828      10.69204798 
H      19.41370281      25.26659111      10.98255597 
H      15.25529314      27.29439082      18.70106998 
H      15.31167051      25.91774048      19.84862408 
H      13.75155109      26.44399176      19.16269809 
H      14.73542273      25.82779316      12.33374204 
H      15.94465420      24.87250807      13.24787613 
H      14.48457252      25.48626322      14.07555803 
H      10.38135440      23.89346656      19.13727650 
H      12.06179254      24.44048588      18.83344786 
H      11.21006961      24.93944482      20.33510933 
H      16.82167450      21.91225152       8.06315977 
H      17.87516715      20.46386531       8.17169502 
H      18.09548408      21.81668162       9.31975716 
H      22.99548441      21.09477378       9.44245299 
H      22.98953581      19.93246303      10.80154926 
H      23.01469848      21.69174104      11.13482888 
H      23.35852856      14.84763724      10.83132914 
H      23.64820563      15.01431962      12.58879656 
H      24.93853588      15.47031629      11.42294623 
H      19.96188080      16.62820030       7.10030785 
H      19.15308489      15.14015555       7.69094045 
H      20.55457383      15.79503967       8.57139785 
H      21.07143385      10.96870084       9.60474633 
H      20.70020727      11.08662304      11.35675654 
H      22.31881828      11.54074466      10.75507248 
H      18.94216995       9.52741340      10.42920372 
H      18.04083633       8.19375228      11.20607156 
H      19.16385812       9.19432330      12.17923767 
H      13.38468115       7.86899149      15.18201344 
H      13.22689587       9.64690976      15.08021414 
H      13.11387665       8.83093814      16.66775391 
H      12.61310347       9.97468424      10.62708162 
H      13.85207385       9.24647298      11.70182671 
H      14.25768289      10.68353011      10.73221632 
H      15.81474524      14.20296674       7.59377042 
H      16.25244005      15.53630399       8.71528470 
H      14.57326940      14.89651627       8.69231107 
H       9.55804048      12.78616523      12.89634824 
H       9.05086233      14.38831573      13.54659285 
H       8.18298973      12.90027379      14.04481112 
H      10.43107987      15.06534281       9.57562842 
H      10.48473433      16.76253054      10.16194748 
H      10.13516472      15.43476549      11.30349137 
H       7.31692962      18.67635419      14.04608384 
H       8.64317409      19.33896643      15.04637508 
H      10.69265563      21.31740054      10.48497448 
H      12.38394245      21.90121565      10.35246367 
H      11.59640975      21.79752606      11.95672898 
H      11.41960361      23.46531118      14.89122907 
H      12.00502562      23.00497828      16.51383128 
H      10.38099741      23.74524721      16.32425216 
H      19.55482043       7.28148175      14.46417377 
H      19.19237195       7.60595811      16.18926235 
H      20.87306036       7.74476499      15.57782456 
H      25.05635796      10.14211617      15.59255118 
H      24.27842450      11.06748696      16.91761863 
H      25.66368721      11.76396232      16.04262944 
H      24.14466224      16.55828435      24.48132047 
H      24.44077742      15.26723936      23.28309590 
H      24.20065110      14.84067231      25.00636559 
H      20.08385279      14.67420054      25.99378875 
H      18.83504234      13.94066052      27.05189282 
H      18.39711132      15.27099930      25.93340213 
H      15.50229749      14.75461589      26.71221168 
H      14.09766252      15.46843937      25.87295205 
H      14.68760549      16.19630785      27.40061715 
H      12.21940198      11.40101331      23.62369054 
H      13.44159297      10.68891816      24.71825617 
H      13.81755525      10.94290165      22.98282122 
H      16.51857861       8.04164310      23.41159760 
H      15.37191143       9.01299540      22.42785768 
H      15.59772412       9.37232354      24.17583468 
H      20.57200463       9.16216208      22.70568380 
H      20.29481350      10.55829140      23.78464545 
H      21.89938751       9.75692639      23.76287219 
H      15.50953170       7.20584826      19.56387422 
H      14.43980890       7.70121451      18.22821059 
H      22.29204548      21.56162893      24.61671605 
H      22.97425866      21.59087887      22.96455913 
H      23.98315115      21.03915930      24.33926685 
H      11.63520621      21.44932691      23.60340541 
H      11.61824083      20.88843372      25.30703715 
H      11.66995038      19.69625227      23.97765862 
H      15.24798490      25.05305698      24.00513549 
H      16.80162981      24.22936117      24.34717764 
H      15.28474029      23.27471451      24.22512409 
H       7.89717577      21.54040556      20.18303325 
H       9.48420189      21.57163402      21.01778431 
H       7.24385347      14.63543752      19.33629444 
H       7.90970868      15.75821159      20.56107217 
H       8.85887889      14.32444679      20.05425018 
H       9.68712690      15.27268580      23.29176309 
H      11.30478974      14.65785601      23.77867410 
H      10.92942223      14.90527024      22.04879422 
H      21.18591471       8.58519790      17.81196962 
H      20.95175279       7.80529045      19.40738838 
H      21.21073525       9.57550303      19.30675498 
H      13.75755494       7.42439162      19.87338939 
H       8.12100233      20.63096099      21.70383474 
H       7.74416761      17.89318748      15.60422091 
