322
Properties=species:S:1:pos:R:3 i=231 optimized=T E=-4479.025427686 pbc="F F F" jobid=102_44-Ag-80_4-000006-PBE
Ag      16.82145168      17.03535181      15.82177855 
Au      17.64300237      17.01679520      18.63804462 
Au      18.60568398      14.95687026      16.80078735 
Ag      15.86121604      14.97651143      17.60787699 
Ag      19.51684115      17.77359777      16.57854861 
Ag      14.98012169      17.79280516      17.93638455 
Ag      17.26549918      19.49464678      17.24840001 
Ag      17.82613145      15.06091747      13.89854248 
Au      16.64356907      15.02433567      20.55386812 
Ag      18.18391137      19.49381819      20.14014302 
Au      16.33414700      19.58098194      14.38081835 
Ag      19.41552120      14.93559457      19.70450468 
Ag      15.03153344      15.02981120      14.67019930 
Ag      18.63793593      17.90751871      13.67248421 
Ag      15.83179526      17.82734131      20.83497625 
Au      20.39415478      17.74555999      19.45224776 
Ag      14.10183915      17.82692434      15.06399462 
Ag      21.36031003      15.71642806      17.57571319 
Ag      13.16473562      15.76133426      16.86457105 
Ag      13.93877620      15.77516845      19.72815905 
Au      20.55107815      15.75461704      14.68564303 
Ag      15.44645224      20.33188697      19.41271806 
Ag      19.11754861      20.37407785      15.15114804 
Ag      20.03834461      20.30277457      17.96901447 
Au      14.50141268      20.37127133      16.56139052 
Ag      17.63511139      12.75885225      18.61964881 
Ag      16.83397347      12.86143032      15.67977951 
Ag      15.97573502      17.12563801      12.95270258 
Ag      18.49859809      17.01966373      21.54857645 
Ag      19.64810640      13.00560190      15.00481959 
Au      14.85130428      12.97794728      19.34812642 
Ag      13.11537599      18.53993164      19.99164039 
Au      21.35365599      18.56069358      14.52957598 
Ag      20.39053342      12.94656931      17.78782907 
Ag      14.10469207      13.01235806      16.56267863 
Ag      22.20353081      18.55012758      17.25662552 
Ag      12.33835985      18.60314897      17.26033849 
Au      17.74058523      21.97309037      18.66999872 
Au      16.86427690      22.04391269      15.94678073 
Ag      20.42582876      19.20708879      21.97159925 
Ag      14.10173330      19.41689754      12.58913951 
Ag      18.77177045      14.30248765      22.44905992 
Ag      15.78469454      14.44325769      11.94488345 
Ag      17.29564135      19.35813579      11.62193826 
Ag      17.26085781      19.23454051      22.92483068 
Ag      18.18303944      16.25674075      11.26554322 
Ag      16.24321223      16.13463685      23.21023906 
Ag      21.24771174      16.19051041      21.72392049 
Ag      13.16756230      16.42045407      12.79328610 
Ag      23.19424556      16.52794767      15.46107963 
Ag      11.30442744      16.49992798      18.89843507 
Ag      22.38914731      13.77342910      15.77526009 
Ag      12.15425873      13.73419993      18.60770993 
Ag      15.00147266      22.84948858      18.03590763 
Au      19.63597291      22.79781255      16.58456246 
Ag      17.70139862      12.37760602      12.94097300 
Au      16.80636113      12.35629127      21.41333389 
Ag      20.06757131      14.22566770      12.38344276 
Ag      14.37962835      14.14898753      21.99114128 
Ag      21.81774613      21.09717456      15.78733418 
Au      12.78936662      21.11865891      18.66849760 
Ag      13.57622938      17.03959387      22.36005118 
Ag      20.84486595      17.10766803      12.10398594 
Ag      22.27316760      19.86317777      19.78913675 
Ag      12.23936584      19.99332252      14.76487804 
Ag      19.96590494      21.70171712      20.44883652 
Ag      14.59658427      21.87224730      14.18867382 
Ag      15.75778422      10.81868775      17.44612241 
Ag      18.71292587      10.81143553      16.73763091 
Ag      22.08135387      14.05857163      19.85167554 
Ag      12.36822860      14.19342861      14.55726810 
Ag      17.01384368      21.71868422      21.44500244 
Ag      17.53320460      21.83091495      13.12621310 
Ag      19.71885941      12.18196158      20.52723630 
Ag      14.73258374      12.31296138      13.77958471 
Au      23.09810324      16.88068772      19.48150966 
Ag      11.34476615      16.96474193      15.10788561 
Ag      20.06549748      20.19345830      12.52238350 
Ag      14.52318669      20.07037566      22.03170567 
Ag      20.57701168      23.02847069      13.69569296 
Ag      14.09943945      22.94142093      20.98187087 
Ag      24.46264008      14.61761550      17.84573022 
Ag       9.97124359      14.60838373      16.66976988 
Ag      17.27988497      24.76610591      17.33513805 
Ag      21.74162308      11.00790078      14.66560471 
Au      13.01759345      10.68830700      19.58685769 
Au      16.19299368       9.79023213      13.61880590 
Ag      17.97693223       9.74573582      20.34339876 
Ag      10.39727363      18.27180947      21.10850056 
Au      24.09837621      18.33846060      13.27755719 
Ag      24.44973802      20.36762592      16.84974573 
Ag      10.08323079      20.43025079      17.57146607 
Ag      23.60657851      18.32330532      22.08737433 
Ag      10.78735984      18.49531165      12.58817300 
S      19.68788914       9.79926120      14.57564882 
S      15.03431030       9.46846422      19.54947021 
Ag      14.63511465      18.82577158      24.69115315 
Ag      19.81841626      18.88961869       9.82582082 
Ag      18.21911644      13.33364241      10.09966891 
Au      16.09179985      13.28784231      24.39522714 
Ag      19.30230825      21.88676870      23.38498711 
Au      15.24254768      22.07215203      11.17067568 
S      18.56625640      24.05234132      12.81517534 
S      16.09490706      23.98293414      21.88066523 
S      24.09660243      12.72582947      19.31848392 
S      10.36793744      12.83888095      15.07234226 
Ag      12.78465938      13.58664060      11.63071218 
Ag      21.68979083      13.20608838      22.70082376 
S       8.94092730      16.09060589      18.27864209 
S      25.47692650      16.22813400      16.35929957 
S      11.19521645      17.15666219      23.09973668 
S      23.22981189      17.24752877      11.36317930 
S      22.92481776      22.75010094      14.27499499 
S      11.77611099      22.62188015      20.31213988 
S      22.17676259      19.28812129      23.75440096 
S      12.21399570      19.53351571      10.96592066 
S      18.81775981       8.81553092      18.31364979 
S      15.38846446       9.00546914      15.67059856 
S      15.83781820      13.42222012       9.67236809 
S      18.43712464      13.27653763      24.71454124 
S      18.36821041      20.27560323      24.90170887 
S      16.15412391      20.47147057       9.69573769 
S      24.20846714      21.26190937      19.08821454 
S      10.27494469      21.40746770      15.35540809 
S      14.90157566      25.24824096      17.43931758 
S      19.68463442      25.15230548      17.26516502 
S      17.00658414      10.41519825      11.48868489 
S      17.48684190      10.36019882      22.63708833 
S      15.94819293      17.01940394      25.54034633 
S      18.51929009      17.08887605       8.92130061 
S      21.99601521      15.25758450      23.90409136 
S      12.44315677      15.69237884      10.52836571 
S      23.83339669      12.17249151      14.53369909 
S      10.97315694      11.86126929      19.77788454 
S      13.71544198      13.30983408      24.22460062 
S      20.65119904      13.29376012      10.18498337 
S      21.61512702      11.02474439      21.69436235 
S      12.76776491      11.35852626      12.51844267 
S      20.73245800      23.36717636      22.10175001 
S      13.93588505      23.54955582      12.49717158 
S      25.16745509      16.98738253      20.77768034 
S       9.23530587      17.10905123      13.82010592 
S      13.63580432      20.96628984      24.17131147 
S      20.80637706      21.04150023      10.31601668 
S      25.49436173      19.42879175      14.85795216 
S       9.01228368      19.48127347      19.53839217 
C      18.81765793      14.52361488      26.00446914 
C      15.51097796      14.74721037       8.44371130 
C      23.51541188      22.95592830      18.93354028 
C      11.01091971      23.07491438      15.59304684 
C      20.61588264       8.58253300      18.61984141 
C      13.56418088       8.90413399      15.47057698 
C      10.57614257      15.43150375      22.97040876 
C      23.86573550      15.52798415      11.45936033 
C       8.18886693      15.00274330      19.55503167 
C      26.39640693      15.27619213      15.08614404 
C      22.80852786      20.99788104      23.99045379 
C      11.60069067      21.26120796      10.84055015 
C      14.74511532      26.30509788      18.93830354 
C      19.89928071      26.23885488      15.79740512 
C      23.81180250      15.41833036      24.14744760 
C      10.62395642      15.81571479      10.29138042 
C      19.71299680      16.04899538       7.98790629 
C      14.75948066      15.98540519      26.48648114 
C      19.80972149      24.90195676      21.68774555 
C      14.92634749      25.04965797      12.86818594 
C      21.19577227      11.57531546      10.54444094 
C      13.13813001      11.59295314      23.92084689 
C      24.94252297      11.35435260      15.75370724 
C      20.11263353       8.04581259      14.96154381 
C      14.62597848       7.74986400      19.05409872 
C      26.30619254      18.10900593      19.87347543 
C       8.09186319      18.19240787      14.76906877 
C      18.89334400      24.33976772      11.03169093 
C      15.72663952      24.21041270      23.66612707 
C      23.34211884      24.25678567      15.24130269 
C      11.30616795      24.15658273      19.41884379 
C      17.34551688      21.36268062       8.62175426 
C      20.99464886       9.94184816      23.04498354 
C      13.38224045      10.34968296      11.10939162 
C      11.80606653      20.79213307      24.15239795 
C      22.63903388      20.90914678      10.28095746 
C       9.14101985      13.11659658      13.73307065 
C      18.36949583       9.23231279      11.16255780 
C      16.01511617       9.38685438      23.12868368 
C       8.48592506      20.97934963      20.46001771 
C      26.08137399      20.91717255      13.96133121 
C      17.14382813      21.14756192      25.95802050 
H      16.63624961      20.38948631      26.56794458 
H      16.39880498      21.69195903      25.37088858 
H      17.68083107      21.84363753      26.61216872 
C      25.30898499      12.95421706      20.67992977 
H      26.27007860      12.53175488      20.36439198 
H      24.93891057      12.40966211      21.55735032 
H      25.44090030      14.01427869      20.92508060 
C       9.85215986      11.07770445      18.54957004 
H       8.93744453      11.68210906      18.51217478 
H       9.60907674      10.06572788      18.89121849 
H      10.29534873      11.04540841      17.54961133 
H      26.66775115      15.97008070      14.28095178 
H      25.78822360      14.46018977      14.67840531 
H      27.30711678      14.86939827      15.54010939 
H      26.53602559      17.66361289      18.89831447 
H      27.22127568      18.19087734      20.47234097 
H      25.87202655      19.10448223      19.73737764 
H      26.53884936      20.59780158      13.01822799 
H      26.84032566      21.40247210      14.58699078 
H      25.25569900      21.61333203      13.76700592 
H      24.28531351      23.61323576      18.51491585 
H      23.23783460      23.30094987      19.93671462 
H      22.62504701      22.96819954      18.29341330 
H      23.37527310      25.11700466      14.56297275 
H      24.33241031      24.11296918      15.69011670 
H      22.60900668      24.43794333      16.03480943 
H      20.20212707      25.29986283      20.74481814 
H      19.98226154      25.62594255      22.49252064 
H      18.73452654      24.71380950      21.58635319 
H      20.96761547      26.29033674      15.55668661 
H      19.53626594      27.23864679      16.06222005 
H      19.34981579      25.86063827      14.92874349 
H      17.93175784      24.42407398      10.51156693 
H      19.47948961      23.52015372      10.59966800 
H      19.44877463      25.27921344      10.92862490 
H      15.18713747      27.28414843      18.72245044 
H      15.23971037      25.85762821      19.80705148 
H      13.67784420      26.43067164      19.15672495 
H      14.83956739      25.73606666      12.01826722 
H      15.98049029      24.80658691      13.04613531 
H      14.49930478      25.51423685      13.76483779 
H      10.35394333      23.98040035      18.90425632 
H      12.07180453      24.44127602      18.68813111 
H      11.17981279      24.95685387      20.15748921 
H      16.78899688      22.06749819       7.99409895 
H      17.82974983      20.60758559       7.98938060 
H      18.10855004      21.89314360       9.19817133 
H      22.97311781      21.11991955       9.25853509 
H      22.98391592      19.91358832      10.57694019 
H      23.05017626      21.65785863      10.96790387 
H      23.36236688      14.95057397      10.67418743 
H      23.64846747      15.07397512      12.43270249 
H      24.94678440      15.54035620      11.28301477 
H      20.03868562      16.60631959       7.10259685 
H      19.19453208      15.13367775       7.67564377 
H      20.58123503      15.77393351       8.59406025 
H      21.06767188      10.96704747       9.64189519 
H      20.63083456      11.13497391      11.37228293 
H      22.25785633      11.60849274      10.81408242 
H      18.86274698       9.54747761      10.23554916 
H      17.94044971       8.23342663      11.02601728 
H      19.08788274       9.22574326      11.99027894 
H      13.32172308       7.98209614      14.92989528 
H      13.16935035       9.76641058      14.92057552 
H      13.11249161       8.87589059      16.47014481 
H      12.53042378      10.13095040      10.45536127 
H      13.79737039       9.41693840      11.50916838 
H      14.16107015      10.87030920      10.54205782 
H      15.66568642      14.32334240       7.44479208 
H      16.17708971      15.60609096       8.58622368 
H      14.46787434      15.06709258       8.55473024 
H       9.51756515      12.62564065      12.82741206 
H       8.98896693      14.18569878      13.54581450 
H       8.19093658      12.65924623      14.03252960 
H      10.33139004      15.12362720       9.49380679 
H      10.39736660      16.84573023       9.98781649 
H      10.07090109      15.57908621      11.20516246 
H       7.19319838      18.34447909      14.16015161 
H       8.54438443      19.16366263      14.99282316 
H      10.62655491      21.24370928      10.33901638 
H      12.31734929      21.83250504      10.23791614 
H      11.49890101      21.73387211      11.82271206 
H      11.31628318      23.45902083      14.61265202 
H      11.88659630      23.03481537      16.25168970 
H      10.25039172      23.73516728      16.02465032 
H      21.13102844       7.94902537      15.34861027 
H      20.02261514       7.46597203      14.03538949 
H      19.39809792       7.67254143      15.70562223 
H      25.24706709      10.38194664      15.35147159 
H      24.46194972      11.22574161      16.72833337 
H      25.82709931      11.99023659      15.88099351 
H      24.00938586      16.43503839      24.51061698 
H      24.36901809      15.25068499      23.22106993 
H      24.12553577      14.68979004      24.90346832 
H      19.89308571      14.73265864      25.94769937 
H      18.57122575      14.09348823      26.98185430 
H      18.25246272      15.45012985      25.85097157 
H      15.26032185      15.04452660      26.74678383 
H      13.86117749      15.75624550      25.90548119 
H      14.48481225      16.52696413      27.39836238 
H      12.05861582      11.64832805      23.73559830 
H      13.32534800      10.98488664      24.81287035 
H      13.62632824      11.14750268      23.04880501 
H      16.36199661       8.38153676      23.39668087 
H      15.29182712       9.32084699      22.30844408 
H      15.56428382       9.86540619      24.00520867 
H      20.56766135       9.03865230      22.59306432 
H      20.22408202      10.43417134      23.64633831 
H      21.84715222       9.67128180      23.67841074 
H      15.58010066       7.21610384      18.96206654 
H      14.10667497       7.71572080      18.09195534 
H      22.10422532      21.52929713      24.64306969 
H      22.89994991      21.54132943      23.04518851 
H      23.78747335      20.94129959      24.47936482 
H      11.39932991      21.46238490      23.38656806 
H      11.43249564      21.08937693      25.13926802 
H      11.49603961      19.76287480      23.94589167 
H      15.18192930      25.15382110      23.78862901 
H      16.67554076      24.26433396      24.21300085 
H      15.11839354      23.38610555      24.05618762 
H       7.75749788      21.52336257      19.84709625 
H       9.34235558      21.62789346      20.68415033 
H       7.29664505      14.52800459      19.13113562 
H       7.89517198      15.63327117      20.40333569 
H       8.88954359      14.23293674      19.89708191 
H       9.49026608      15.43495683      23.11604448 
H      11.05548643      14.84184619      23.76068779 
H      10.81985898      14.98882675      21.99770174 
H      21.12140236       8.44162025      17.65764906 
H      20.74747588       7.68243470      19.23153759 
H      21.05457088       9.44075187      19.14156809 
H      14.01082458       7.28232315      19.83036163 
H       8.00568822      20.66390008      21.39342331 
H       7.82632288      17.68590302      15.70421947 
