322
Properties=species:S:1:pos:R:3 i=297 optimized=T E=-4399.7247108872 pbc="F F F" jobid=102_44-Ag-59_8-000003-PBE
Ag      16.87667243      16.94656954      15.79102436 
Au      17.67296313      16.90487851      18.56155022 
Ag      18.63348115      14.85481825      16.78282233 
Ag      15.87547038      14.85738899      17.54447498 
Ag      19.57052797      17.64867202      16.51641454 
Ag      15.00251155      17.68332877      17.87653232 
Ag      17.29292436      19.44328091      17.23076338 
Au      17.86490535      14.91347394      13.89342503 
Ag      16.60488307      14.93101245      20.46616409 
Au      18.23042719      19.46198672      20.06189927 
Au      16.39727743      19.53978200      14.34472071 
Au      19.40061396      14.84438289      19.72312779 
Ag      15.07892546      14.92807281      14.64001619 
Ag      18.72754885      17.79282608      13.64978007 
Au      15.82726573      17.76357629      20.74072949 
Ag      20.41336257      17.60322246      19.40606876 
Ag      14.16422656      17.71068181      15.01721741 
Ag      21.38820842      15.58308752      17.56310036 
Ag      13.15675151      15.65776432      16.77896319 
Ag      13.91265272      15.66689402      19.64679231 
Ag      20.59085323      15.64212932      14.68505396 
Au      15.41558800      20.24802433      19.35142485 
Au      19.11906072      20.20972744      15.11857544 
Au      20.07487178      20.22716117      17.96362178 
Au      14.56464605      20.29609814      16.48781618 
Ag      17.61910726      12.66290858      18.70668054 
Ag      16.82951276      12.74802858      15.65356457 
Au      16.05117065      17.02940562      12.91276296 
Au      18.51543945      16.96599889      21.53763013 
Ag      19.67365287      12.87021096      15.02175939 
Ag      14.81554340      12.89470620      19.31081306 
Ag      13.08440684      18.44416255      19.91812139 
Ag      21.46616723      18.38320659      14.46536693 
Au      20.39922698      12.87654897      17.81415285 
Ag      14.04426575      12.92085223      16.48172982 
Ag      22.21793832      18.38707068      17.24181060 
Au      12.36617841      18.50408069      17.14872809 
Ag      17.79367127      21.98083736      18.58790532 
Ag      16.88526098      22.00693860      15.89822188 
Ag      20.43587779      19.13560035      21.93457450 
Au      14.21337917      19.27172626      12.53163124 
Au      18.73647389      14.21802458      22.42012872 
Ag      15.77640378      14.34630092      11.85275160 
Ag      17.32025447      19.28963995      11.55338119 
Ag      17.24821043      19.15215812      22.88368302 
Au      18.24549454      16.10227695      11.28287554 
Au      16.23850461      16.14582237      23.15476299 
Au      21.27659962      16.18884865      21.73923623 
Ag      13.25428317      16.34433377      12.68363561 
Ag      23.24195117      16.33057481      15.51548044 
Ag      11.24497699      16.43939268      18.78560958 
Ag      22.38441947      13.57210700      15.81095044 
Au      12.11222586      13.69596280      18.53276130 
Au      15.01901511      22.67865125      18.04491120 
Ag      19.65823656      22.68865484      16.37831145 
Ag      17.71310511      12.26325081      12.89398853 
Ag      16.70960394      12.24773965      21.47346108 
Au      20.10225535      14.03602192      12.41022589 
Au      14.37303474      14.04411453      21.89841098 
Au      21.83267638      20.89810778      15.84193155 
Ag      12.69735757      21.02226996      18.61848540 
Ag      13.60863081      16.94566596      22.29470912 
Ag      20.89600697      16.97171101      12.03322562 
Ag      22.31400236      19.74852740      19.75142434 
Ag      12.33817853      19.92490834      14.64156076 
Ag      20.02753044      21.63625088      20.39890454 
Ag      14.63185537      21.79135982      14.09595992 
Au      15.73251989      10.83341401      17.45148004 
Au      18.66529940      10.78183136      16.81061050 
Ag      22.10595586      14.00439574      19.95668666 
Ag      12.40342000      14.14575112      14.38955667 
Ag      17.01929878      21.65611678      21.37594669 
Ag      17.65996684      21.75505244      13.12188945 
Au      19.73186326      12.11802174      20.58704181 
Ag      14.75115422      12.23819460      13.70946607 
Au      23.14782437      16.76707977      19.42361902 
Ag      11.38637427      16.88018042      14.95158915 
Ag      20.12561649      20.11022407      12.52659859 
Au      14.48635549      20.00369208      21.98285661 
Au      20.73294913      23.12021649      13.51648739 
Ag      14.07456913      22.86025601      20.90336204 
Ag      24.49029553      14.44664094      17.83755897 
Ag       9.99085245      14.56333214      16.48821740 
Au      17.46365666      24.79254317      17.28475986 
Au      21.63890020      10.70556662      14.67937426 
Ag      12.80587661      10.75061188      19.42507505 
Au      16.19842367       9.70427430      13.61973657 
Au      18.18272675       9.61001294      20.55034140 
Au      10.34513960      18.22755064      20.97770308 
Au      24.21972228      18.13890665      13.37882410 
Ag      24.47851658      20.22253340      16.94111122 
Au      10.05281109      20.33828617      17.46130208 
Ag      23.63843886      18.26930772      22.00998523 
Ag      10.93015006      18.46086122      12.40242291 
S      19.54984232       9.62824992      14.67026542 
S      14.87755517       9.56431499      19.49824686 
Ag      14.64783786      18.71334207      24.67578323 
Au      19.88811973      18.78893161       9.73497888 
Ag      18.38199613      13.19475069      10.05059469 
Au      16.09528151      13.17139576      24.37020323 
Ag      19.29225958      21.88165650      23.29873589 
Ag      15.41750003      22.07077848      11.19098098 
S      18.70102349      23.98564996      12.70229718 
S      16.09706822      23.92021852      21.75063114 
S      24.07052241      12.61772561      19.35538290 
S      10.41605284      12.76915474      14.92482814 
Au      12.71670641      13.47793665      11.48467797 
Au      21.88596663      13.16081761      22.82974184 
S       8.90357751      16.11513691      17.98949300 
S      25.56403268      15.98445304      16.32098383 
S      11.18217426      17.08138499      22.86787074 
S      23.34361333      17.01056153      11.49665315 
S      22.88408034      22.47155819      14.24079413 
S      11.73063707      22.54497068      20.34829824 
S      22.25661246      19.38432232      23.62386600 
S      12.44184600      19.51080563      10.85082165 
S      18.99162220       8.87410413      18.47575417 
S      15.36992814       8.98655405      15.68701738 
S      16.00997242      13.25149659       9.61190883 
S      18.44299328      13.18780281      24.62716181 
S      18.33368002      20.28013625      24.80795831 
S      16.27094384      20.47333647       9.61960620 
S      24.29584331      21.16124319      19.17286408 
S      10.38738675      21.34393765      15.33886769 
S      15.10764393      25.00670380      17.33272152 
S      19.81096713      25.01250561      17.24907827 
S      17.03129359      10.28186825      11.48574457 
S      17.37619570      10.14077141      22.70426931 
S      15.91571991      16.86207106      25.51798006 
S      18.61017914      16.95726651       8.98657089 
S      22.13077155      15.25005935      23.87527239 
S      12.48878628      15.56311443      10.41441207 
S      23.70496535      11.84232558      14.54961904 
S      10.73838360      11.96626283      19.62247305 
S      13.72819055      13.17143664      24.11216710 
S      20.82880358      13.14951504      10.26689924 
S      21.60846599      11.04099125      21.84455813 
S      12.81283606      11.29608036      12.36817450 
S      20.71372170      23.36342991      22.00566903 
S      14.05504859      23.58158912      12.51007952 
S      25.20282394      16.88387452      20.75642340 
S       9.33292892      17.09041192      13.57695555 
S      13.66288957      20.85991608      24.11496170 
S      20.92679169      20.83852055      10.27558885 
S      25.56463511      19.28135816      14.96290990 
S       9.01727982      19.40300050      19.39654730 
C      18.84221881      14.46489274      25.87900858 
C      15.66169562      14.56145623       8.37304819 
C      23.59286203      22.84797559      18.98279459 
C      11.13497064      22.99143699      15.64757145 
C      20.81341354       8.80575443      18.69171721 
C      13.54895275       8.92990560      15.46031462 
C      10.56253677      15.36248514      22.69708183 
C      23.91405784      15.27626354      11.67719746 
C       8.07189901      15.07358826      19.25385128 
C      26.42782946      14.97754732      15.05053124 
C      22.92644910      21.09301701      23.71120714 
C      11.88268364      21.25653124      10.74721981 
C      14.79994930      26.09874002      18.77830551 
C      20.10155049      26.19493458      15.87021656 
C      23.93365453      15.47697193      24.12995010 
C      10.68456897      15.74291250      10.11827447 
C      19.79667521      15.90121103       8.06872289 
C      14.69737569      15.81805114      26.41056874 
C      19.76841610      24.87145129      21.54915020 
C      15.03770696      25.04706333      13.02342567 
C      21.37585147      11.43189281      10.61447961 
C      13.21240552      11.43789553      23.80641348 
C      24.78036938      11.02212820      15.79602410 
C      19.86064656       7.86235642      15.06341313 
C      14.55608950       7.82476841      19.00149616 
C      26.38011057      17.96707828      19.85531290 
C       8.16783810      18.17212046      14.49986310 
C      18.99246179      24.24294656      10.90782884 
C      15.77330915      24.16873697      23.54176743 
C      23.51714651      23.90435374      15.19782289 
C      11.20030734      24.08303967      19.49332412 
C      17.48862185      21.32870180       8.54378588 
C      20.92289640      10.01669304      23.20180625 
C      13.44787313      10.30254829      10.96048650 
C      11.83379414      20.70996139      24.06612388 
C      22.74486903      20.59703405      10.22577515 
C       9.21237716      13.02159799      13.55947865 
C      18.41783724       9.11958981      11.18612891 
C      15.98346784       8.98322862      22.98959339 
C       8.47852423      20.89040394      20.32087839 
C      26.13793942      20.76852388      14.05399663 
C      17.11216295      21.16301182      25.85830854 
H      16.60260701      20.41322667      26.47679060 
H      16.36890494      21.70493285      25.26721992 
H      17.65207383      21.86322649      26.50570417 
C      25.32194650      12.85550097      20.68013778 
H      26.26036408      12.38639982      20.36249177 
H      24.95130373      12.36428307      21.58812726 
H      25.49512507      13.91920695      20.88031257 
C       9.60988458      11.24965713      18.36066379 
H       8.75040088      11.92216765      18.25072517 
H       9.26909644      10.27396568      18.72549402 
H      10.09738995      11.14051384      17.38713081 
H      26.72093680      15.64827160      14.23331005 
H      25.78252770      14.18399705      14.65755043 
H      27.32523391      14.53606637      15.49869967 
H      26.61674612      17.50291769      18.89067351 
H      27.28777522      18.04055621      20.46650291 
H      25.96869664      18.96897281      19.69732741 
H      26.67305642      20.44250994      13.15481731 
H      26.82826032      21.31458193      14.70825199 
H      25.29723298      21.41417087      13.77373942 
H      24.36840283      23.50988840      18.58156555 
H      23.28004257      23.20340858      19.97188336 
H      22.72307916      22.84168695      18.31555791 
H      23.69672981      24.73613339      14.50708958 
H      24.46300493      23.59996394      15.66343422 
H      22.80712048      24.20537170      15.97520201 
H      20.15194854      25.24817244      20.59401766 
H      19.93439939      25.61952018      22.33308373 
H      18.69522672      24.66649670      21.45770875 
H      21.18505599      26.24829706      15.70924331 
H      19.72678680      27.18107745      16.16512186 
H      19.61557756      25.86376668      14.94689596 
H      18.01362287      24.36524951      10.42772744 
H      19.52068327      23.39050446      10.46726188 
H      19.58455892      25.15538997      10.77448565 
H      15.15462354      27.10458721      18.52647007 
H      15.30620135      25.72814813      19.67624771 
H      13.71725724      26.12180498      18.95025986 
H      14.94357426      25.80847102      12.24051046 
H      16.09475250      24.79966756      13.16878158 
H      14.62278972      25.43147343      13.96220159 
H      10.20807529      23.91127512      19.05832782 
H      11.89769860      24.35703909      18.69515163 
H      11.13957800      24.89668425      20.22509403 
H      16.95288829      22.04694038       7.91299391 
H      17.96557307      20.56823066       7.91325945 
H      18.26224683      21.84432060       9.11896390 
H      23.07421034      20.63695078       9.18148036 
H      23.04373724      19.64243426      10.66961041 
H      23.19698443      21.42040981      10.79120419 
H      23.43926717      14.69498298      10.87735913 
H      23.61783598      14.85626272      12.64567807 
H      25.00359804      15.24806768      11.56925806 
H      20.10931956      16.44488859       7.16988808 
H      19.26852515      14.98229736       7.78239008 
H      20.67013695      15.64249458       8.67449782 
H      21.31964051      10.85588557       9.68349095 
H      20.75717424      10.96230983      11.38521754 
H      22.41403331      11.46852261      10.96451271 
H      18.93168082       9.45278524      10.27662682 
H      18.00607416       8.11687293      11.02585241 
H      19.11404076       9.11028792      12.03206059 
H      13.29817814       8.04622769      14.86214658 
H      13.17443676       9.83059154      14.96033323 
H      13.08445970       8.84941455      16.45114296 
H      12.61512978      10.11103500      10.27450326 
H      13.82776275       9.35702513      11.36550886 
H      14.25732083      10.81908589      10.43371232 
H      15.89256821      14.16244289       7.37868586 
H      16.25456677      15.46434305       8.55562892 
H      14.59495355      14.80969387       8.43365370 
H       9.61014424      12.52934712      12.66384574 
H       9.05538431      14.08754430      13.35953334 
H       8.26053080      12.55924161      13.84528610 
H      10.38193075      15.02374603       9.34919355 
H      10.51759022      16.76499038       9.75477671 
H      10.10104617      15.58271604      11.02972114 
H       7.31903029      18.39357147      13.84286759 
H       8.64013686      19.10840916      14.81265983 
H      10.90972664      21.26806154      10.24236652 
H      12.61384445      21.81509771      10.14922010 
H      11.79041845      21.71945646      11.73464461 
H      11.41318435      23.41167797      14.67314218 
H      12.03332256      22.91383346      16.27164398 
H      10.39142131      23.63341310      16.13206580 
H      20.43897268       7.41202808      14.24908182 
H      18.87855754       7.37912059      15.13582593 
H      20.39242065       7.73966921      16.01124924 
H      25.02860939      10.01566444      15.44218645 
H      24.30530602      10.97379447      16.78085855 
H      25.69716310      11.61921911      15.87522254 
H      24.08781533      16.50744470      24.47499797 
H      24.50055385      15.30798884      23.20977803 
H      24.25825059      14.77247331      24.90438537 
H      19.91417429      14.68230654      25.79518244 
H      18.62150188      14.04361842      26.86681856 
H      18.25925444      15.37932527      25.72211963 
H      15.17994450      14.86375183      26.65736449 
H      13.80656841      15.61942891      25.80745139 
H      14.41454031      16.34297453      27.33036787 
H      12.15995070      11.45769981      23.49917621 
H      13.31494721      10.86992860      24.73818185 
H      13.81343005      10.97852962      23.01567845 
H      16.38606401       7.97130006      23.11122482 
H      15.27485165       9.00580422      22.15422768 
H      15.48684545       9.29105715      23.91729735 
H      20.49018476       9.11461605      22.75254806 
H      20.14490290      10.54835712      23.75878548 
H      21.75110793       9.74955301      23.86830446 
H      15.52889783       7.34820370      18.83110196 
H      13.95861349       7.75529935      18.08826667 
H      22.24118863      21.69793294      24.31797413 
H      23.02508466      21.54727438      22.72046764 
H      23.90796640      21.05419275      24.19669565 
H      11.44978660      21.40089991      23.30639443 
H      11.45781828      20.99595072      25.05581493 
H      11.51343951      19.68927531      23.83611450 
H      15.23475599      25.11556550      23.66586364 
H      16.73273999      24.22384174      24.07019093 
H      15.16854218      23.35234400      23.95294701 
H       7.77703754      21.44231838      19.68424050 
H       9.33718390      21.52250929      20.58157644 
H       7.17476784      14.62611071      18.81088547 
H       7.77859030      15.72514740      20.08635322 
H       8.73394520      14.28353675      19.62671227 
H       9.47125699      15.36617719      22.78957903 
H      11.00607848      14.77852151      23.51254406 
H      10.86120979      14.92341430      21.73807665 
H      21.27554239       8.72321738      17.70030550 
H      21.06036905       7.92215217      19.29158766 
H      21.18952196       9.70782578      19.18655527 
H      14.03429520       7.31897123      19.82190264 
H       7.96414611      20.55400186      21.22853365 
H       7.82357418      17.62611370      15.38604616 
