322
Properties=species:S:1:pos:R:3 i=286 optimized=T E=-4437.470472855 pbc="F F F" jobid=102_44-Ag-69_6-000003-PBE
Ag      16.86312396      17.11805457      15.90214919 
Ag      17.66950704      17.07119337      18.68866908 
Ag      18.63379040      15.01994137      16.85684026 
Ag      15.90149448      15.04406529      17.64673461 
Ag      19.53389124      17.87727494      16.63010554 
Ag      15.01334118      17.84995344      17.97935496 
Ag      17.24066318      19.58785256      17.33569629 
Ag      17.84838269      15.16105221      13.97694066 
Ag      16.63010062      15.04978565      20.55624856 
Ag      18.16191314      19.58620157      20.15473306 
Ag      16.33388801      19.68415799      14.49471687 
Au      19.40933642      14.97253490      19.79057037 
Ag      15.06155389      15.10572397      14.72065274 
Ag      18.67727835      18.02220285      13.75839365 
Ag      15.84351347      17.88524830      20.89288509 
Au      20.39875100      17.83470685      19.48718078 
Ag      14.11981572      17.91265949      15.13535276 
Au      21.34373080      15.81651159      17.64218440 
Au      13.16118509      15.82887920      16.90088163 
Au      13.94948887      15.77865051      19.76948288 
Ag      20.54532667      15.89159291      14.77194821 
Ag      15.42413813      20.41891074      19.43333498 
Au      19.07050230      20.45065281      15.22144052 
Ag      19.98511886      20.40471792      18.05193275 
Ag      14.50211266      20.43612979      16.65510077 
Ag      17.64922666      12.83036648      18.69600116 
Ag      16.91493176      12.89513266      15.75367901 
Au      15.98599100      17.24184303      13.03390808 
Au      18.47745941      17.07281016      21.59308481 
Ag      19.69552569      13.06439870      15.02913733 
Ag      14.87243625      13.01021837      19.38012969 
Au      13.14256110      18.58965855      20.02772526 
Ag      21.37906771      18.66648161      14.57414307 
Ag      20.38895378      13.01290715      17.87204519 
Au      14.17645520      13.06087282      16.56859468 
Ag      22.22323591      18.69678235      17.31596433 
Ag      12.31621283      18.66449815      17.32716872 
Ag      17.68499221      22.10075954      18.71626846 
Ag      16.77082182      22.13175890      16.03239208 
Ag      20.38152422      19.30356183      22.05151344 
Ag      14.10720877      19.43445173      12.64774270 
Ag      18.74661258      14.35990091      22.53834570 
Au      15.75232246      14.56773079      11.99233637 
Ag      17.23152328      19.46280134      11.67289081 
Au      17.24919370      19.28354647      22.96296285 
Au      18.22032059      16.49695189      11.33778505 
Ag      16.25877098      16.18233730      23.25495268 
Au      21.28079258      16.38111550      21.76823607 
Ag      13.20912722      16.46681076      12.79038164 
Ag      23.20939075      16.61350613      15.60587543 
Ag      11.31169489      16.53440261      19.01071412 
Au      22.34598650      13.85956256      15.94268743 
Ag      12.17207760      13.75680578      18.56925237 
Ag      14.90404452      22.89510187      18.11410914 
Au      19.51611639      22.88866583      16.56363292 
Au      17.72297701      12.50633939      13.00271278 
Au      16.73500398      12.39216746      21.46242989 
Au      20.05421020      14.39436041      12.44246929 
Ag      14.37231773      14.20442767      22.04990668 
Au      21.77544279      21.17443824      15.92499564 
Ag      12.69642154      21.14837579      18.82935496 
Au      13.58346056      17.00944849      22.40539932 
Ag      20.90656164      17.22092040      12.15518487 
Ag      22.20168569      19.98916107      19.87899042 
Ag      12.25319240      20.05185627      14.84441873 
Ag      19.90189379      21.80427746      20.51031292 
Ag      14.54972881      21.89514764      14.23760358 
Ag      15.76281238      10.85163434      17.49355537 
Ag      18.72637466      10.85783511      16.85738037 
Ag      22.10669718      14.16903011      19.98739774 
Ag      12.37326234      14.23233936      14.58835634 
Ag      16.99963225      21.79260159      21.52110983 
Ag      17.49358760      21.92463510      13.23078431 
Ag      19.71995671      12.24971584      20.63067226 
Ag      14.76661603      12.37766777      13.79110675 
Au      23.16940204      16.96760003      19.45031687 
Au      11.38155244      17.01233090      15.10977108 
Ag      19.98604891      20.37669153      12.59044926 
Au      14.50058407      20.17265332      22.04514696 
Au      20.51310782      23.37737164      13.63660862 
Ag      14.00173523      22.99835834      20.98624578 
Ag      24.55184780      14.74676679      17.82917105 
Ag       9.96403944      14.69527380      16.65764609 
Ag      17.19611156      24.85993856      17.42193462 
Au      21.50975693      10.79973000      14.80979588 
Ag      13.06966031      10.75077832      19.48408224 
Au      16.19865723       9.82384846      13.70071367 
Ag      18.06124477       9.82053432      20.50565062 
Ag      10.46027400      18.32199864      21.21593896 
Ag      24.11446307      18.51288629      13.54908999 
Au      24.47046236      20.61138667      17.08338176 
Ag      10.04015624      20.48680017      17.71686472 
Ag      23.64293999      18.48220136      22.05760672 
Ag      10.89392120      18.62712586      12.55739784 
S      19.48465117       9.63187235      14.68553669 
S      15.12514567       9.51842884      19.61131221 
Au      14.65088907      18.75043959      24.82326067 
Ag      19.80796813      19.01653802       9.88054414 
Ag      18.25501807      13.50488109      10.16376480 
Ag      16.11912584      13.22921497      24.32400756 
Au      19.30395763      22.05466243      23.47542430 
Ag      15.23959139      22.23642763      11.32143329 
S      18.44906617      24.20838261      12.86508875 
S      16.02286503      24.06213611      21.80843673 
S      24.14886755      12.92775644      19.37863962 
S      10.32065669      12.92445909      15.04794535 
Ag      12.77053341      13.63610770      11.68422563 
Au      21.80837804      13.25450741      22.81039386 
S       8.98177964      16.15522658      18.31520241 
S      25.58789060      16.24527984      16.21838761 
S      11.24946100      17.11666453      23.17876741 
S      23.31733302      17.43820107      11.53442144 
S      22.71110185      22.78900565      14.26284832 
S      11.65720939      22.80532217      20.37474527 
S      22.24308555      19.47353963      23.72972485 
S      12.29517748      19.72424451      10.95308475 
S      19.02505514       8.93703458      18.51053164 
S      15.41296067       8.99202645      15.73471344 
S      15.85752298      13.56688074       9.74507320 
S      18.49159001      13.32547503      24.78002660 
S      18.35087297      20.41217012      24.87378246 
S      16.15573428      20.65914774       9.76560897 
S      24.09270776      21.49988982      19.25150680 
S      10.30370297      21.46047250      15.51292408 
S      14.82020792      25.28397127      17.44587966 
S      19.60208071      25.16723019      17.42630683 
S      16.99776064      10.57298085      11.60416740 
S      17.45473152      10.43249573      22.77897185 
S      15.79982737      16.87456601      25.64874015 
S      18.51899996      17.19787252       8.98013753 
S      22.04627631      15.35085168      23.85648697 
S      12.35405621      15.72909583      10.57338871 
S      23.50744362      12.06554423      14.74425372 
S      10.97231124      11.90698275      19.68437251 
S      13.68812322      13.14971767      24.16969234 
S      20.71253410      13.45189652      10.29332823 
S      21.61976026      11.11338982      21.85896988 
S      12.79002377      11.40037686      12.56598139 
S      20.63272037      23.52617554      22.17129227 
S      13.83568324      23.67575820      12.67448319 
S      25.21325055      17.16972905      20.74436284 
S       9.33415781      17.25234983      13.81424404 
S      13.72677350      20.87423696      24.27019774 
S      20.79338136      21.15604616      10.38207590 
S      25.50515053      19.72914804      15.13333075 
S       9.00825279      19.52329156      19.68910049 
C      18.85499635      14.60634570      26.04340117 
C      15.49965025      14.90023354       8.53846227 
C      23.29707724      23.13550705      19.01536362 
C      11.01181438      23.13887597      15.74753560 
C      20.84144219       8.84236183      18.77822479 
C      13.58898332       8.89781896      15.54468771 
C      10.61913490      15.40505450      22.96957738 
C      23.91887314      15.70480526      11.64087861 
C       8.19738489      15.05194214      19.55828826 
C      26.32624464      15.15368910      14.93730239 
C      22.86714965      21.18982887      23.92947973 
C      11.65791854      21.44672808      10.88659952 
C      14.61454119      26.37361998      18.91603732 
C      19.87984325      26.33383101      16.03091356 
C      23.85038420      15.58172069      24.10097404 
C      10.52840084      15.84016338      10.39718033 
C      19.73804728      16.14160268       8.10323952 
C      14.48768321      15.84725212      26.41575523 
C      19.65610371      25.03536263      21.80359107 
C      14.77317843      25.17009754      13.18900835 
C      21.25897617      11.74509398      10.69007023 
C      13.14358703      11.46683460      23.67163535 
C      24.62396118      11.27437487      15.96893481 
C      19.84353619       7.88761368      15.12957714 
C      14.76199068       7.78521477      19.10853437 
C      26.33831315      18.27791147      19.80976132 
C       8.20220594      18.32883300      14.77920892 
C      18.72921103      24.50195584      11.07442948 
C      15.70135768      24.33548418      23.59715608 
C      23.33562907      24.22202582      15.22374048 
C      11.24785894      24.35293263      19.47274759 
C      17.37276044      21.53960086       8.70875373 
C      20.98557933      10.07422852      23.23368259 
C      13.41181340      10.41224323      11.14573998 
C      11.89908094      20.72865992      24.28377873 
C      22.62533975      21.01241245      10.38148130 
C       9.12967669      13.27105876      13.69372811 
C      18.38277519       9.44998034      11.18280822 
C      16.04349097       9.34045384      23.19748892 
C       8.45980490      21.00293714      20.62709937 
C      26.03530199      21.23114836      14.22398228 
C      17.11632805      21.27232027      25.92059094 
H      16.57741660      20.50049241      26.48444413 
H      16.40256197      21.84923387      25.32601509 
H      17.65632304      21.93359424      26.60802198 
C      25.34511937      13.18232047      20.74862171 
H      26.30138628      12.72965456      20.46144952 
H      24.95252595      12.68081910      21.64154638 
H      25.49505826      14.24839090      20.95431333 
C       9.87074578      11.13741925      18.42670617 
H       8.97806664      11.76691360      18.32913706 
H       9.58044186      10.14284744      18.78280934 
H      10.35206326      11.06161809      17.44713492 
H      26.62761538      15.77945395      14.08820670 
H      25.61740516      14.39237970      14.59379707 
H      27.21343819      14.66728197      15.35875440 
H      26.66598268      17.75531883      18.90339200 
H      27.19987281      18.48888712      20.45430848 
H      25.84864447      19.21692405      19.53412436 
H      26.57490475      20.90180110      13.32792991 
H      26.71299153      21.80857751      14.86314686 
H      25.17471849      21.84424831      13.93110856 
H      24.02845623      23.82432602      18.57888882 
H      22.99103070      23.49636398      20.00496620 
H      22.41383246      23.06068326      18.36951589 
H      23.47732724      25.07003174      14.54403039 
H      24.29971260      23.93172632      15.66010560 
H      22.63916721      24.49149518      16.02438725 
H      20.08046603      25.49268574      20.90185858 
H      19.75453936      25.72488375      22.64971251 
H      18.59835661      24.80147310      21.63298038 
H      20.94982278      26.34290439      15.79301228 
H      19.56864161      27.33198246      16.36015546 
H      19.31592045      26.03955678      15.14010375 
H      17.74789265      24.59074717      10.59205379 
H      19.29535336      23.67779319      10.62603112 
H      19.28425228      25.43932982      10.95493658 
H      15.06746907      27.34687916      18.69766228 
H      15.07444795      25.93848739      19.81028637 
H      13.53997543      26.50480639      19.08987077 
H      14.63836016      25.93665019      12.41719797 
H      15.84090953      24.95896964      13.31326979 
H      14.36082444      25.52799968      14.13963239 
H      10.25392557      24.23469658      19.02463360 
H      11.97806082      24.56156104      18.68301092 
H      11.22633883      25.18464686      20.18613766 
H      16.83742528      22.27570506       8.09870096 
H      17.84126050      20.79396224       8.05410138 
H      18.15102664      22.03742870       9.29355397 
H      22.98243383      21.29426499       9.38405289 
H      22.95545759      19.99336098      10.60669939 
H      23.02821730      21.70684658      11.12759584 
H      23.44598953      15.13350682      10.83331073 
H      23.65275577      15.24731086      12.60103987 
H      25.00686277      15.69997988      11.51295125 
H      20.05021775      16.67199212       7.19601677 
H      19.24596076      15.19969490       7.82898377 
H      20.61289406      15.92120908       8.72229327 
H      21.16298821      11.12991605       9.78776022 
H      20.66805042      11.31329506      11.50390438 
H      22.31110499      11.78770089      10.99464603 
H      18.88718698       9.86148082      10.30093693 
H      17.95855355       8.46903619      10.93885765 
H      19.08288620       9.35945002      12.02104695 
H      13.34365180       8.05383973      14.89024205 
H      13.18036938       9.82244422      15.12117401 
H      13.15852759       8.72656896      16.53963221 
H      12.56062963      10.18740312      10.49279963 
H      13.84074629       9.48104386      11.53485887 
H      14.18064474      10.94793839      10.57844842 
H      15.65340157      14.48365724       7.53572714 
H      16.15792529      15.76405676       8.68468919 
H      14.45231580      15.20296420       8.65891931 
H       9.50614431      12.78879443      12.78322146 
H       9.01484907      14.34806844      13.52605787 
H       8.15895092      12.83979630      13.96449249 
H      10.21369003      15.14482715       9.61074997 
H      10.28037757      16.86728443      10.09964501 
H      10.00802761      15.59918079      11.32865175 
H       7.28838742      18.44925624      14.18483207 
H       8.64121790      19.31291798      14.97039864 
H      10.67177683      21.43023141      10.40924524 
H      12.34890652      22.04215945      10.27666584 
H      11.57667189      21.89747045      11.88045131 
H      11.30687642      23.52555034      14.76480462 
H      11.89366142      23.11463260      16.39928339 
H      10.24388178      23.78636126      16.18472911 
H      20.69044298       7.51605725      14.54435321 
H      18.94013938       7.31841645      14.87594129 
H      20.03485778       7.77965439      16.20238378 
H      24.95056483      10.31255491      15.55764965 
H      24.13308915      11.12961129      16.93587081 
H      25.48924891      11.93476252      16.10395199 
H      24.00448718      16.61282324      24.44402467 
H      24.41221762      15.40955970      23.17841831 
H      24.17790893      14.87808224      24.87505858 
H      19.91367662      14.87890188      25.95955349 
H      18.66316597      14.17151275      27.03121908 
H      18.23347171      15.49861234      25.91005001 
H      14.94290014      14.89220566      26.70718763 
H      13.66593625      15.65535001      25.71931009 
H      14.11294621      16.36619505      27.30462304 
H      12.09445787      11.53322071      23.36054338 
H      13.22587213      10.79380314      24.53270071 
H      13.73706225      11.07744059      22.83871202 
H      16.45380920       8.35305714      23.44081675 
H      15.34822946       9.25322171      22.35495816 
H      15.53383333       9.75105561      24.07626886 
H      20.57292681       9.15836612      22.79348413 
H      20.20079347      10.58627717      23.79923881 
H      21.82670431       9.82687534      23.89090917 
H      15.53355891       7.15338752      19.56562631 
H      14.81916102       7.67615246      18.01933432 
H      22.15360768      21.73766697      24.55734681 
H      22.96685338      21.70587135      22.96969628 
H      23.84199207      21.14792316      24.42803904 
H      11.49430576      21.53324927      23.65858317 
H      11.55919320      20.85067173      25.31897732 
H      11.56886450      19.75744491      23.90238805 
H      15.13098217      25.26452924      23.71200749 
H      16.66425443      24.43052811      24.11324925 
H      15.13236934      23.50461949      24.02972268 
H       7.69697656      21.52315991      20.03577139 
H       9.30018665      21.67985699      20.82707667 
H       7.28685468      14.62612845      19.12149510 
H       7.93033575      15.66155929      20.43016763 
H       8.87151161      14.24470358      19.86642692 
H       9.54416093      15.40990824      23.18402312 
H      11.14298997      14.75921514      23.68478611 
H      10.79578560      15.03323736      21.95420444 
H      21.34060728       8.79635562      17.80200148 
H      21.06237484       7.92875130      19.34251013 
H      21.21856492       9.70903302      19.33250056 
H      13.77714188       7.47717622      19.47300667 
H       8.01584797      20.66909297      21.57195410 
H       7.96645741      17.83224961      15.72763480 
