322
Properties=species:S:1:pos:R:3 i=321 optimized=T E=-4479.0152729582 pbc="F F F" jobid=102_44-Ag-80_4-000010-PBE
Ag      16.85121145      17.05378922      15.87441390 
Ag      17.67735479      17.01320599      18.70586710 
Ag      18.61806933      14.98737401      16.87832283 
Ag      15.88819072      14.94891409      17.63127807 
Ag      19.50635747      17.78880500      16.62508956 
Au      15.04659912      17.76041552      17.98407482 
Ag      17.27031004      19.52864459      17.30753714 
Ag      17.86073511      15.10682304      13.95564023 
Ag      16.62714859      15.00052809      20.56076161 
Ag      18.17662117      19.51576525      20.15490995 
Ag      16.37279267      19.59842809      14.45542591 
Au      19.40623657      14.91584343      19.80765985 
Ag      15.08726664      15.05212410      14.70811554 
Ag      18.64922878      17.91549205      13.71647854 
Ag      15.84505440      17.86581874      20.87047707 
Au      20.40940506      17.72866140      19.51738773 
Au      14.12589810      17.80175934      15.02598897 
Au      21.36744067      15.72175309      17.62481452 
Ag      13.19791562      15.73882592      16.87285932 
Ag      13.92979566      15.73193903      19.73452058 
Ag      20.57381038      15.79469284      14.76253572 
Ag      15.41974634      20.32829851      19.41569216 
Ag      19.11185417      20.36887309      15.22314317 
Ag      19.99190921      20.32085923      18.03187406 
Ag      14.54692515      20.37733323      16.61449497 
Au      17.62420529      12.80707687      18.70682039 
Ag      16.85192336      12.83671607      15.74449002 
Ag      16.01567486      17.13774865      12.95552349 
Ag      18.47960093      17.02001811      21.59492411 
Au      19.64645967      13.06665262      15.06086058 
Ag      14.80811828      12.98475317      19.36346671 
Ag      13.13238708      18.50037466      20.01705855 
Au      21.37457339      18.54991444      14.58316393 
Ag      20.39271467      12.96458721      17.84804600 
Ag      14.10491930      12.98055327      16.57627156 
Ag      22.16017076      18.57194840      17.32261677 
Au      12.38361692      18.59856127      17.29487675 
Ag      17.71217811      22.02846012      18.69341521 
Ag      16.84149500      22.05297634      16.00534481 
Ag      20.41579090      19.22293359      22.01402155 
Ag      14.16843303      19.40788824      12.58871678 
Ag      18.71512384      14.27663291      22.50215010 
Ag      15.82894545      14.44217581      11.96514477 
Ag      17.28451575      19.40025902      11.66409519 
Au      17.27721697      19.28192454      22.91607437 
Ag      18.22986378      16.25267838      11.29653228 
Au      16.22934758      16.16686953      23.19589930 
Au      21.25303904      16.22915892      21.78358959 
Ag      13.17266538      16.42787559      12.74724445 
Ag      23.24230742      16.55368820      15.60043160 
Ag      11.29256428      16.50447336      18.88871389 
Ag      22.39475818      13.76035808      15.90136867 
Ag      12.09065095      13.73386272      18.53791128 
Ag      14.96389299      22.80273355      18.10826692 
Ag      19.59739365      22.80659827      16.61289745 
Ag      17.77515382      12.41276685      12.97737410 
Ag      16.69676176      12.29665560      21.49293746 
Ag      20.09198522      14.24061058      12.44892848 
Au      14.36623511      14.12076080      21.96753607 
Ag      21.80652640      21.09113084      15.87144319 
Ag      12.70775531      21.07835124      18.79409690 
Ag      13.57917653      17.00172185      22.38929458 
Ag      20.85557030      17.11221967      12.15130889 
Ag      22.24582778      19.90909455      19.82899288 
Au      12.33922105      19.99754590      14.77947769 
Au      19.93216926      21.71898235      20.47553997 
Ag      14.62101787      21.85400535      14.20119006 
Ag      15.81332979      10.82872536      17.58680092 
Ag      18.74351107      10.83168204      16.85631579 
Ag      22.08435757      14.07860421      19.93882227 
Ag      12.43224205      14.21587863      14.52404990 
Ag      16.96184531      21.73559341      21.46837576 
Ag      17.58175809      21.83272250      13.22129492 
Ag      19.67217773      12.13683845      20.58609850 
Au      14.80760359      12.35990108      13.82086047 
Ag      23.16222073      16.87405534      19.48180834 
Ag      11.34564587      16.93918642      15.11880527 
Ag      20.05731589      20.18460883      12.58558882 
Ag      14.46747231      20.09998236      22.03686718 
Ag      20.54363337      23.01664211      13.73492152 
Ag      14.05269443      22.96519296      20.98185129 
Ag      24.53790354      14.56678077      17.91136631 
Au       9.81768230      14.59636338      16.63473305 
Ag      17.27069227      24.77924304      17.37643764 
Ag      21.56944271      10.90933507      14.81497433 
Ag      12.86292048      10.87029414      19.63106381 
Ag      16.46945708       9.89362892      13.81460987 
Ag      17.97564925       9.73042385      20.48941788 
Ag      10.36846374      18.35726468      21.00423533 
Au      24.12357983      18.32061624      13.39155072 
Ag      24.44455114      20.35117637      16.97064613 
Ag      10.13166210      20.44541579      17.44655470 
Ag      23.58868082      18.34982405      22.08157628 
Au      10.91349494      18.54851521      12.42969212 
S      19.52890212       9.65611682      14.70482535 
S      14.89871933       9.61675289      19.68877013 
Ag      14.63909365      18.80978678      24.68911693 
Ag      19.86038409      18.93189447       9.87462192 
Ag      18.32147488      13.32326969      10.13833422 
Au      16.14041230      13.19498927      24.40813612 
Ag      19.27509902      21.91125785      23.42807990 
Ag      15.32339824      22.09955128      11.26466347 
S      18.54334115      24.09038381      12.87241898 
S      16.06714622      24.01409944      21.85124198 
S      24.09994551      12.76125561      19.45397922 
S      10.35786726      12.94844179      15.03343553 
Ag      12.85990272      13.47816598      11.63714036 
Ag      21.66127352      13.21673880      22.77924477 
S       8.92333536      16.11439432      18.20559465 
S      25.55735899      16.12416391      16.38409984 
S      11.16480290      17.21965775      22.97983013 
S      23.26157013      17.23194525      11.47528585 
S      22.87773581      22.77555880      14.37465821 
S      11.71504603      22.73592837      20.36104793 
S      22.19910092      19.37679041      23.75396160 
S      12.35279387      19.57582063      10.86034818 
S      18.85564539       8.84844484      18.45840389 
S      15.60788092       8.98563572      15.85267140 
S      15.94446508      13.43526181       9.68960560 
S      18.47856989      13.20928408      24.75065830 
S      18.32470213      20.27640279      24.92276070 
S      16.19186261      20.49033092       9.70627244 
S      24.23037649      21.27522894      19.19868192 
S      10.46684370      21.49525034      15.26564166 
S      14.88623912      25.17701525      17.41037467 
S      19.65493231      25.16759266      17.35103007 
S      17.13198551      10.46313541      11.54515274 
S      17.44245227      10.27970599      22.77339028 
S      15.91048231      16.95517909      25.53350667 
S      18.56886005      17.12949378       8.96569164 
S      21.97912264      15.30886898      23.92990320 
S      12.53826573      15.56355432      10.50742964 
S      23.67864356      12.05710082      14.64682789 
S      10.76920538      12.03035702      19.78883888 
S      13.76740790      13.21744075      24.16807805 
S      20.75640677      13.36000843      10.24678436 
S      21.58683818      11.04316656      21.76943402 
S      12.93651634      11.26919037      12.60812625 
S      20.68207933      23.38878132      22.09327038 
S      13.94870665      23.59880178      12.57927399 
S      25.20252166      17.02567723      20.85033247 
S       9.35716719      17.24053294      13.64939817 
S      13.64060522      20.96495367      24.21163833 
S      20.84937753      21.07464172      10.41159826 
S      25.49809028      19.42950311      14.97640340 
S       9.00135502      19.54860541      19.40167529 
C      18.82086169      14.50273026      26.00629574 
C      15.62718835      14.74932993       8.44764926 
C      23.54459817      22.96896917      19.01139658 
C      11.22565530      23.13360310      15.59022696 
C      20.65330508       8.61181801      18.76041104 
C      13.79874496       8.80469020      15.59269795 
C      10.50752815      15.50706905      22.86831233 
C      23.89360553      15.51130375      11.56621909 
C       8.12048133      15.05878696      19.47531410 
C      26.36601569      15.11711664      15.07761873 
C      22.85292298      21.08613604      23.91936748 
C      11.73666399      21.30212837      10.76788578 
C      14.68418868      26.28337475      18.86864083 
C      19.86424237      26.29795314      15.91239697 
C      23.79218955      15.48481123      24.16452781 
C      10.72946078      15.71680256      10.21894418 
C      19.75812502      16.08964787       8.02698736 
C      14.70545683      15.90497258      26.43534054 
C      19.75815871      24.91951521      21.67957720 
C      14.90830157      25.10234289      13.01746719 
C      21.36771253      11.66532720      10.61360516 
C      13.20342407      11.50131121      23.85233121 
C      24.79399682      11.23501877      15.85884219 
C      19.91236464       7.90891409      15.14165899 
C      14.46796251       7.90480773      19.15627800 
C      26.36923915      18.14424939      19.97433949 
C       8.21686390      18.37808452      14.52899209 
C      18.89075849      24.36977519      11.09018732 
C      15.70853665      24.26001063      23.63729320 
C      23.27135635      24.29849159      15.32574529 
C      11.29607733      24.26754407      19.43489968 
C      17.41647384      21.35619556       8.64460228 
C      20.97427598       9.94472696      23.11070175 
C      13.58496966      10.23193072      11.23971410 
C      11.80946541      20.80577980      24.22053134 
C      22.68140691      20.92772596      10.40398082 
C       9.16089059      13.22295963      13.66814541 
C      18.53570904       9.33896032      11.17883157 
C      16.03173156       9.18983471      23.20830577 
C       8.44145625      21.04895020      20.29731740 
C      26.05703503      20.93275403      14.08586785 
C      17.07477862      21.13551317      25.95685663 
H      16.53783234      20.37364764      26.53624785 
H      16.35789558      21.70428429      25.35796790 
H      17.60531553      21.80930698      26.63976154 
C      25.29158300      13.01598122      20.82914387 
H      26.24936012      12.56532232      20.54404968 
H      24.89621058      12.50696377      21.71684279 
H      25.43834145      14.08149884      21.03923773 
C       9.66222661      11.21597355      18.56421820 
H       8.78680085      11.86065254      18.41997866 
H       9.34386834      10.24892828      18.96892063 
H      10.15295403      11.07461274      17.59664539 
H      26.63227174      15.79101793      14.25405221 
H      25.70035965      14.32938164      14.70574539 
H      27.27652011      14.66873592      15.49088669 
H      26.64598439      17.68355401      19.01895254 
H      27.25914663      18.25566936      20.60470863 
H      25.92898897      19.13029908      19.79593150 
H      26.52558789      20.62509104      13.14431404 
H      26.80298064      21.43170561      14.71643671 
H      25.21901638      21.61313713      13.88918810 
H      24.31428395      23.61451023      18.57454663 
H      23.27360744      23.33678434      20.00796744 
H      22.64958009      22.97172802      18.37772472 
H      23.29661968      25.15102316      14.63761794 
H      24.26147047      24.17061124      15.77946354 
H      22.53333614      24.48080345      16.11484482 
H      20.12355378      25.29899852      20.71811926 
H      19.96591940      25.65141969      22.46941569 
H      18.67872791      24.73646262      21.61871523 
H      20.93889513      26.42153023      15.73355891 
H      19.42484074      27.26937193      16.16397776 
H      19.39247203      25.89759274      15.00838903 
H      17.93578462      24.47878082      10.56212476 
H      19.46024126      23.53655677      10.66203385 
H      19.46946339      25.29552020      10.99159225 
H      15.12867209      27.25670898      18.63397875 
H      15.15443356      25.86409447      19.76495599 
H      13.61035878      26.40994814      19.05034065 
H      14.74907867      25.84577995      12.22785844 
H      15.97954540      24.88760516      13.11044153 
H      14.52964556      25.49026131      13.97025718 
H      10.30839270      24.13113993      18.97813132 
H      12.03202509      24.47483724      18.65002297 
H      11.25717861      25.10774861      20.13744356 
H      16.88181865      22.07243112       8.01068302 
H      17.89948799      20.59854997       8.01453297 
H      18.18155259      21.87635119       9.22794726 
H      23.03271783      21.12061718       9.38386063 
H      23.01436771      19.93440583      10.72067788 
H      23.08808922      21.68364690      11.08571181 
H      23.38272842      14.93651546      10.78385090 
H      23.68171782      15.05688745      12.54049606 
H      24.97358695      15.52212831      11.38310520 
H      20.08528289      16.64892969       7.14346097 
H      19.23535040      15.17793160       7.71115005 
H      20.62574289      15.80732897       8.63073367 
H      21.28465039      11.05456284       9.70744671 
H      20.80456983      11.19842854      11.42774610 
H      22.42127855      11.74261776      10.90627392 
H      19.03968048       9.70070216      10.27539807 
H      18.13131257       8.33766870      10.99086366 
H      19.24167759       9.30083190      12.01605670 
H      13.62370144       7.91820306      14.97188660 
H      13.37151781       9.68364736      15.09661778 
H      13.31624473       8.66356902      16.56712789 
H      12.73232221       9.95632045      10.60778993 
H      14.03948455       9.33129135      11.66945053 
H      14.33549489      10.76232121      10.64455287 
H      15.80341021      14.31947533       7.45481009 
H      16.28280860      15.61548254       8.59564604 
H      14.57946284      15.06007979       8.53782585 
H       9.53253707      12.66981250      12.79662580 
H       9.07065008      14.28779412      13.42720760 
H       8.18446780      12.82683216      13.96910170 
H      10.45359090      15.03554462       9.40619368 
H      10.52538523      16.75343217       9.92395070 
H      10.14802750      15.48069731      11.11454396 
H       7.43892593      18.70164084      13.82833430 
H       8.74214751      19.25463045      14.92167935 
H      10.75106589      21.29446884      10.28944627 
H      12.44225530      21.87162153      10.14963367 
H      11.66580389      21.76352315      11.75782602 
H      11.61325228      23.52711078      14.64252346 
H      12.04708948      23.06230729      16.31292741 
H      10.44380988      23.79651211      15.97861470 
H      20.99163878       7.74425947      15.20931912 
H      19.49932005       7.27493388      14.34786234 
H      19.43020716       7.66073421      16.09587499 
H      25.08866803      10.26063791      15.45366256 
H      24.31863247      11.10649010      16.83589967 
H      25.68424005      11.86394855      15.98113584 
H      23.99363884      16.51775808      24.47571273 
H      24.34950202      15.26350184      23.24985216 
H      24.09404954      14.79253048      24.95924701 
H      19.89025670      14.74024435      25.95179862 
H      18.58031229      14.09134182      26.99320764 
H      18.23110335      15.40860491      25.82564887 
H      15.19519191      14.95343686      26.67872283 
H      13.81114996      15.70228939      25.83851820 
H      14.42573552      16.42789584      27.35717014 
H      12.14563093      11.55268022      23.56793446 
H      13.31109982      10.91991230      24.77523774 
H      13.77439157      11.03510315      23.04366354 
H      16.42306183       8.18416957      23.40054671 
H      15.29606441       9.15026778      22.39716688 
H      15.56832738       9.57982636      24.12167167 
H      20.55947903       9.04012776      22.65041884 
H      20.19378724      10.42246318      23.71067700 
H      21.82868853       9.68165414      23.74453869 
H      14.69078635       7.23089466      19.99176783 
H      15.08507522       7.63838899      18.28904952 
H      22.16976687      21.65090932      24.56627408 
H      22.93273546      21.59313824      22.95284768 
H      23.84130877      21.03532305      24.38971179 
H      11.39654480      21.50008165      23.47959731 
H      11.45389563      21.07929471      25.22080579 
H      11.48834360      19.78485733      23.99069415 
H      15.15107692      25.19694703      23.75206161 
H      16.65966556      24.33389679      24.17805176 
H      15.11408142      23.43199646      24.04092293 
H       7.73599136      21.58996645      19.65584950 
H       9.29000228      21.69774140      20.55076702 
H       7.22386453      14.60079647      19.04296923 
H       7.83026820      15.71600710      20.30461244 
H       8.80176827      14.28120527      19.84027292 
H       9.41753870      15.53832591      22.97393957 
H      10.94164673      14.92702351      23.69108679 
H      10.77767834      15.03352216      21.91738921 
H      21.15658804       8.48757656      17.79392035 
H      20.78753760       7.70169878      19.35664926 
H      21.09312431       9.46178948      19.29462420 
H      13.40850682       7.81861712      18.89833953 
H       7.92761860      20.73525370      21.21331230 
H       7.76638589      17.81977469      15.35806265 
