322
Properties=species:S:1:pos:R:3 i=299 optimized=T E=-4286.3401977013 pbc="F F F" jobid=102_44-Ag-30_4-000010-PBE
Au      16.89046577      17.08875875      15.95119366 
Au      17.70275561      17.03509659      18.78114402 
Ag      18.66826155      14.97705312      16.96516747 
Au      15.92743410      14.98264257      17.73381734 
Au      19.59063973      17.81689657      16.68507132 
Au      15.02078678      17.85418653      18.06110841 
Ag      17.28826626      19.55889969      17.40283596 
Au      17.87826667      15.13082150      13.98577213 
Ag      16.66802931      15.03447277      20.65518068 
Au      18.22431031      19.53322375      20.31795738 
Ag      16.34471182      19.62137219      14.52850085 
Ag      19.45088447      14.98276469      19.87507646 
Au      15.09155303      15.01936332      14.82047915 
Au      18.65982387      17.96384563      13.76457482 
Au      15.87536456      17.91320835      20.97974657 
Au      20.45306571      17.76700416      19.55605651 
Au      14.13564828      17.81639405      15.15461991 
Ag      21.38441936      15.72681314      17.69833557 
Au      13.15635211      15.75474987      16.96155738 
Au      13.92322490      15.78574097      19.89340363 
Ag      20.58574667      15.84140463      14.81568693 
Ag      15.42240502      20.36198612      19.54710544 
Au      19.14287795      20.42969952      15.26825597 
Au      20.07974956      20.37404067      18.07313583 
Ag      14.50712123      20.42889115      16.72963652 
Ag      17.67895243      12.78121508      18.81363636 
Au      16.83564529      12.79829510      15.80923510 
Au      16.00762367      17.17706157      12.95565542 
Au      18.56948086      17.03673539      21.73429811 
Au      19.69419424      13.08178354      15.14184059 
Au      14.87203629      12.99426005      19.48682219 
Ag      13.11400996      18.57585604      20.14404924 
Ag      21.43816409      18.62909387      14.62973286 
Ag      20.44335694      12.95862470      17.95091278 
Ag      14.05984676      12.99392789      16.69173513 
Ag      22.28040038      18.60253215      17.34962427 
Au      12.34957961      18.66595945      17.39615453 
Au      17.72316897      22.05373528      18.80974758 
Au      16.77711651      22.08909185      16.11744959 
Ag      20.51067151      19.26215647      22.11083269 
Au      14.12124582      19.39976993      12.67324293 
Au      18.69472828      14.32469665      22.63192265 
Ag      15.64815812      14.42662082      12.08026635 
Ag      17.27145821      19.44193057      11.67086229 
Ag      17.24856405      19.22084861      23.15992796 
Ag      18.24756414      16.27825733      11.32116604 
Au      16.31433976      16.18137034      23.33792488 
Au      21.36871846      16.36452078      21.84459455 
Au      13.21202752      16.45446222      12.81868612 
Au      23.19747143      16.52810169      15.61269555 
Au      11.29935755      16.51885445      19.04480207 
Ag      22.41359874      13.76680315      15.91875053 
Au      12.12932018      13.75541119      18.67670551 
Au      14.95422650      22.86977372      18.30557646 
Au      19.58620590      22.85433798      16.65490922 
Au      17.78622301      12.50896494      12.99844195 
Au      16.74263143      12.31438346      21.54655385 
Ag      20.14966906      14.28467041      12.51077828 
Au      14.38096440      14.16326494      22.12734965 
Ag      21.85763355      21.19363833      15.93048393 
Au      12.71853269      21.12998109      18.90087893 
Au      13.65880280      17.12368674      22.51624656 
Au      20.87043710      17.20874330      12.22584619 
Au      22.31907462      19.91803360      19.87709017 
Au      12.31472895      20.04191799      14.83840240 
Au      20.04949190      21.74700821      20.53340769 
Au      14.58836976      21.86165597      14.29768262 
Au      15.73183882      10.84909304      17.61528278 
Au      18.70943325      10.90341323      16.91045604 
Au      22.11358787      14.13553406      19.99377078 
Ag      12.39528539      14.22467615      14.56479250 
Au      17.02714454      21.69019295      21.59768426 
Au      17.51343653      21.90654378      13.31000234 
Au      19.75785893      12.29167673      20.71837555 
Au      14.74586594      12.26855578      13.97097538 
Au      23.19412574      16.89154117      19.52496739 
Au      11.34518792      16.98683776      15.20047959 
Au      19.99796424      20.27739706      12.63314898 
Ag      14.50948785      20.16223876      22.21059469 
Ag      20.52431843      23.07605367      13.75621544 
Au      13.97257562      23.21054394      21.28532112 
Au      24.74651995      14.54080929      17.86437564 
Ag       9.98072999      14.71772363      16.70928964 
Ag      17.28656939      24.81361580      17.49664497 
Au      21.62405279      10.84819666      14.79619869 
Ag      12.90973223      10.83795329      19.59169311 
Au      16.31837512       9.74862217      13.85936944 
Au      18.31834076       9.71030544      20.61338423 
Au      10.40398516      18.32912313      21.27313334 
Au      24.13820213      18.37272783      13.45799675 
Au      24.51782584      20.46050584      16.98098471 
Au      10.05715045      20.46926589      17.78065799 
Au      23.79278909      18.56048315      22.16158592 
Au      10.85249752      18.62468537      12.49350216 
S      19.58143749       9.68792370      14.76538412 
S      14.93479904       9.55985934      19.63387999 
Au      14.70578347      18.77340479      24.97528952 
Au      19.82487595      18.98614041       9.80504291 
Au      18.42966657      13.50383584      10.07742284 
Ag      16.22916454      13.23147063      24.40402690 
Ag      19.32601521      21.88893263      23.49170277 
Au      15.29486996      22.18086836      11.26578391 
S      18.49401905      24.12593919      12.90994604 
S      16.06606749      23.86912411      22.14583689 
S      24.18898316      12.90950578      19.47256643 
S      10.33343835      12.95678801      15.08719416 
Au      12.66555763      13.39032520      11.69307361 
Au      21.93631471      13.28107782      22.88565265 
S       8.98397061      16.24613298      18.32659519 
S      25.54418343      16.10839196      16.29802641 
S      11.28396019      17.14888099      23.13494323 
S      23.24193515      17.24431208      11.57265820 
S      22.87633453      22.76263530      14.27716506 
S      11.78345031      22.74878251      20.55631260 
S      22.37419580      19.49446941      23.79032331 
S      12.33682593      19.58814045      10.93158314 
S      19.14071903       9.01704208      18.53440598 
S      15.55961835       8.91080292      15.90392768 
S      16.08491602      13.48905137       9.79906699 
S      18.61976071      13.23588408      24.83624644 
S      18.51829425      20.24125287      25.04665707 
S      16.16541408      20.61284581       9.74531064 
S      24.17658516      21.37486070      19.14158919 
S      10.41753847      21.40488169      15.62072292 
S      14.89664157      25.23556937      17.67061175 
S      19.69016073      25.17851877      17.34426525 
S      17.05351669      10.52577529      11.75616548 
S      17.48075136      10.27964875      22.75591650 
S      15.91664131      16.88043445      25.70193715 
S      18.54843643      17.20211716       8.97734993 
S      22.16867147      15.36234945      23.94273662 
S      12.43948780      15.49429527      10.67922332 
S      23.69067746      11.98607418      14.69347845 
S      10.81966660      12.02557678      19.78212585 
S      13.78303434      13.15666582      24.25625309 
S      20.80433579      13.49386014      10.24510512 
S      21.66260092      11.15277173      21.91639212 
S      12.88398123      11.26343802      12.67545791 
S      20.69302417      23.42227570      22.15752012 
S      13.94877072      23.57416473      12.66061478 
S      25.24632096      17.21970060      20.83956335 
S       9.37356548      17.30540543      13.79901395 
S      13.73075252      20.87131284      24.49001377 
S      20.82772135      21.03775786      10.46007920 
S      25.51087736      19.52190694      15.02686370 
S       9.04720812      19.54858994      19.73879063 
C      18.98992790      14.53281736      26.07899810 
C      15.66114774      14.75564301       8.54289566 
C      23.39710272      23.01687269      18.91143172 
C      11.15806835      23.05774110      15.89214108 
C      20.96609411       9.01147380      18.72598752 
C      13.75085050       8.72258909      15.66154419 
C      10.72374034      15.42222304      22.87903297 
C      23.82482218      15.51769845      11.75893022 
C       8.18382478      15.19039923      19.59594090 
C      26.32564259      15.12641526      14.96064716 
C      22.93306374      21.23137486      23.97357878 
C      11.77273683      21.32378193      10.76749477 
C      14.75532957      26.28959632      19.17075331 
C      19.88321142      26.26810226      15.87567313 
C      23.97094133      15.60207899      24.18786709 
C      10.63445106      15.71313202      10.43047067 
C      19.72624696      16.20479882       7.98474950 
C      14.64553755      15.82914108      26.50347840 
C      19.71719911      24.91155265      21.71181104 
C      14.88974895      25.08141488      13.10691733 
C      21.33616085      11.75484314      10.50184338 
C      13.28390920      11.44665932      23.81217449 
C      24.74886904      11.15730656      15.94804724 
C      19.96233818       7.94078442      15.17286964 
C      14.53888710       7.83923549      19.11819183 
C      26.37884892      18.29553631      19.88392933 
C       8.22357916      18.40917684      14.70341744 
C      18.76667474      24.34934923      11.11042600 
C      15.80786791      24.04319085      23.95238126 
C      23.38153938      24.26989046      15.19884166 
C      11.26517345      24.23552864      19.61488101 
C      17.37358102      21.49561442       8.68546428 
C      21.01401201      10.13340962      23.29466589 
C      13.53849968      10.20953538      11.32478034 
C      11.90794600      20.67502554      24.54271063 
C      22.65058400      20.84750269      10.45776386 
C       9.13739423      13.28573968      13.73219873 
C      18.47637755       9.47915892      11.27750529 
C      16.10716740       9.10940986      23.07147319 
C       8.53224799      21.02927741      20.68653502 
C      26.07576826      21.00368791      14.11080208 
C      17.36514081      21.07702349      26.20720207 
H      16.88318980      20.29896754      26.81173441 
H      16.59153750      21.64550888      25.68408845 
H      17.94428830      21.74380321      26.85591716 
C      25.37012299      13.20193027      20.84507696 
H      26.33642028      12.76351657      20.56950364 
H      24.96656406      12.69741405      21.73212873 
H      25.48906527      14.27284030      21.04244579 
C       9.71335344      11.29631041      18.50784940 
H       8.87093401      11.98067590      18.34995986 
H       9.34438653      10.33858966      18.89278233 
H      10.22706896      11.14706645      17.55372414 
H      26.54808269      15.81694095      14.13742931 
H      25.66053983      14.32940183      14.60940639 
H      27.25839845      14.69624707      15.34313674 
H      26.79023192      17.69713164      19.06239798 
H      27.18399507      18.62194786      20.55236547 
H      25.85964677      19.16814028      19.47619413 
H      26.55424173      20.66310549      13.18542343 
H      26.81145214      21.52330167      14.73589621 
H      25.23135279      21.66716672      13.88378797 
H      24.12965968      23.68749733      18.44915163 
H      23.12239349      23.38521381      19.90748178 
H      22.49346096      22.95022819      18.29357685 
H      23.44439452      25.11111732      14.49901940 
H      24.36999432      24.09069450      15.63919781 
H      22.66928868      24.50594925      15.99681454 
H      20.10012841      25.31096549      20.76549846 
H      19.86115666      25.64974256      22.50998408 
H      18.65126426      24.68165066      21.60941552 
H      20.93876397      26.27085519      15.57954148 
H      19.58284726      27.28069177      16.16943294 
H      19.27308323      25.92674754      15.03333478 
H      17.79096759      24.37918829      10.61010333 
H      19.37259271      23.53579357      10.69629514 
H      19.28763028      25.30305329      10.96255673 
H      15.05204270      27.30853557      18.89554297 
H      15.38954866      25.92393316      19.98389932 
H      13.71073457      26.28866365      19.50359759 
H      14.76292398      25.80837255      12.29585702 
H      15.95450350      24.86149580      13.24923074 
H      14.46430369      25.48194343      14.03465118 
H      10.30496449      24.00368992      19.13759138 
H      12.00421343      24.49312993      18.84808428 
H      11.13694745      25.07006723      20.31367637 
H      16.83275454      22.21322273       8.05844136 
H      17.85758655      20.73887379       8.05545296 
H      18.13727503      22.01158617       9.27349597 
H      23.00349645      21.01045965       9.43263933 
H      22.95606111      19.85406468      10.79895067 
H      23.06468451      21.61292343      11.12494198 
H      23.31264260      14.91870115      10.99593711 
H      23.58450621      15.12539824      12.75412979 
H      24.90777721      15.49786905      11.59306298 
H      19.99958748      16.77701477       7.09140251 
H      19.20938417      15.28068139       7.69655437 
H      20.62228540      15.94515119       8.55573308 
H      21.13761284      11.17604305       9.59296567 
H      20.83152334      11.30063909      11.36007759 
H      22.41576929      11.77432162      10.69383628 
H      18.93492654       9.93356914      10.39166442 
H      18.09086865       8.48456004      11.02455161 
H      19.20143640       9.40619478      12.09558664 
H      13.57435631       7.88202063      14.98046049 
H      13.30661062       9.63429987      15.24772292 
H      13.29990764       8.50436483      16.63656866 
H      12.69653646       9.94794091      10.67341177 
H      13.96039882       9.30574862      11.78147680 
H      14.31711252      10.72187606      10.75128763 
H      15.93577748      14.37035984       7.55441343 
H      16.17744840      15.70343225       8.73083661 
H      14.57659279      14.91224115       8.59341868 
H       9.50679678      12.79354976      12.82422397 
H       9.02427841      14.36014146      13.54987955 
H       8.16678297      12.86026742      14.01266018 
H      10.32232952      15.03941059       9.62420352 
H      10.46889413      16.75750597      10.13800897 
H      10.07010281      15.49588907      11.34157077 
H       7.40031611      18.66157558      14.02476236 
H       8.72024311      19.32448963      15.03817015 
H      10.79882034      21.32150231      10.26485698 
H      12.51300244      21.85180314      10.15310106 
H      11.69052474      21.81604138      11.74114292 
H      11.45827605      23.44593438      14.91137538 
H      12.03908509      22.99573618      16.54248339 
H      10.39749498      23.70853750      16.33787228 
H      20.60678078       7.51992000      14.39326769 
H      19.00342668       7.40775666      15.19057186 
H      20.44430785       7.83916275      16.14973337 
H      25.07011734      10.18772964      15.55187352 
H      24.22438025      11.02114787      16.89838566 
H      25.62262909      11.79839569      16.11750546 
H      24.12218630      16.63516333      24.52451325 
H      24.53224756      15.43367643      23.26466314 
H      24.30153416      14.89987808      24.96189708 
H      20.04555936      14.81269187      25.97869067 
H      18.81194753      14.10296925      27.07195194 
H      18.35848636      15.41723937      25.94102566 
H      15.11970258      14.87651816      26.77221111 
H      13.80038646      15.63625602      25.83622366 
H      14.30000969      16.34109786      27.40881144 
H      12.23886207      11.46989410      23.48170010 
H      13.37284893      10.81482115      24.70365241 
H      13.90786068      11.04754318      23.00646706 
H      16.53958816       8.11320560      23.22099484 
H      15.40553701       9.09238904      22.22975334 
H      15.59906243       9.42998918      23.98827032 
H      20.56716557       9.23027683      22.86155101 
H      20.25605069      10.67344217      23.87191630 
H      21.85870496       9.86610946      23.94018749 
H      15.19664371       7.55225839      18.28851472 
H      13.49260270       7.72858837      18.82011507 
H      22.22726121      21.73277965      24.64801419 
H      22.95275280      21.75649113      23.01412868 
H      23.93359297      21.23162369      24.41997810 
H      11.47366523      21.53504576      24.01931414 
H      11.58324609      20.67363199      25.58922855 
H      11.58343883      19.75043475      24.05535751 
H      15.27447517      24.98437726      24.13051056 
H      16.79525855      24.08152803      24.42887501 
H      15.22552362      23.20522599      24.35105486 
H       7.82777802      21.59709381      20.06743371 
H       9.39448334      21.65355088      20.95008167 
H       7.24168996      14.81271698      19.18098688 
H       7.97266085      15.81273890      20.47443817 
H       8.82649717      14.35064406      19.88432970 
H       9.63862440      15.38746787      23.02764818 
H      11.23086033      14.79978299      23.62638324 
H      10.98410216      15.06899429      21.87459454 
H      21.41558634       9.02119037      17.72494325 
H      21.25500600       8.09686277      19.25707845 
H      21.31060588       9.88780122      19.28601871 
H      14.73696222       7.19151230      19.98132068 
H       8.02658906      20.68468158      21.59607755 
H       7.84195814      17.85709236      15.57042506 
