322
Properties=species:S:1:pos:R:3 i=198 optimized=T E=-4437.4959408869 pbc="F F F" jobid=102_44-Ag-69_6-000004-PBE
Ag      16.85628473      17.02875830      15.87731923 
Ag      17.70571474      16.99055961      18.67924688 
Ag      18.63524925      14.94358193      16.89014346 
Ag      15.89331846      15.00696157      17.66243990 
Ag      19.53380403      17.75883849      16.60117702 
Ag      15.04911925      17.76916567      17.98109731 
Ag      17.29752140      19.48157998      17.29614925 
Ag      17.81832492      15.05389965      13.97234669 
Ag      16.68301563      14.98412187      20.55737101 
Au      18.21723884      19.49900003      20.15494932 
Au      16.33679511      19.55907783      14.40969136 
Au      19.50397578      14.91530971      19.79493356 
Ag      15.03877113      15.03165795      14.75382607 
Ag      18.62920833      17.88923932      13.72184057 
Ag      15.90574004      17.81483144      20.90742962 
Ag      20.44096919      17.74072753      19.42451366 
Ag      14.12548628      17.78716054      15.13883573 
Ag      21.37069294      15.69754555      17.62256052 
Ag      13.12504600      15.76389653      16.94659435 
Ag      13.98793911      15.74813493      19.82776577 
Au      20.55705227      15.72638348      14.77246952 
Au      15.46702038      20.31875615      19.46614729 
Ag      19.10441538      20.33623154      15.17382006 
Ag      20.06715105      20.32596396      17.97923708 
Au      14.53137583      20.38643161      16.64190081 
Ag      17.67384109      12.79891277      18.71430894 
Au      16.86574645      12.82211603      15.79371592 
Ag      15.95748693      17.09428101      12.99008881 
Au      18.57104891      17.00763884      21.57066036 
Ag      19.64665982      12.98395827      15.10780624 
Au      14.88532012      12.99570102      19.43748057 
Au      13.21153052      18.50065039      20.07421312 
Au      21.35395198      18.53064836      14.53017953 
Ag      20.43821419      12.93712573      17.87069554 
Au      14.07847457      13.04605768      16.66177349 
Ag      22.20267995      18.57721819      17.26231075 
Au      12.37050208      18.59616929      17.32743701 
Au      17.79434147      22.00612566      18.64966706 
Au      16.87417439      22.03061445      15.96994956 
Ag      20.43445268      19.21877498      21.97734837 
Au      14.07269185      19.33931505      12.66279796 
Au      18.72407881      14.27088596      22.48968888 
Ag      15.71358098      14.38007470      12.01304193 
Ag      17.29476898      19.32382094      11.63350741 
Ag      17.36086449      19.25204562      22.97678368 
Au      18.14911397      16.24323452      11.34709381 
Ag      16.33970540      16.10156809      23.24107484 
Ag      21.39847339      16.29565705      21.71391740 
Ag      13.15863428      16.41136528      12.83914955 
Ag      23.19754139      16.50678398      15.52430578 
Au      11.33134757      16.53770927      19.08103679 
Ag      22.38288095      13.71977994      15.81746610 
Au      12.14619017      13.74216151      18.69824437 
Ag      15.02479339      22.81207870      18.16492953 
Ag      19.61649016      22.82337108      16.50072176 
Ag      17.72688228      12.36594682      13.00865901 
Ag      16.74653277      12.23614964      21.45748172 
Au      20.07834008      14.19489253      12.48460312 
Ag      14.45317874      14.10524308      22.07785069 
Ag      21.80139158      21.08910397      15.75914511 
Ag      12.75265491      21.08674908      18.82089948 
Ag      13.68624819      17.00574730      22.47345030 
Ag      20.82881453      17.05862586      12.12026505 
Ag      22.32898004      19.87749377      19.80947098 
Ag      12.24012497      20.01706836      14.83239012 
Au      20.01467789      21.68957610      20.47140056 
Au      14.56464896      21.84469600      14.25208465 
Ag      15.72412092      10.80141841      17.58149977 
Ag      18.70412559      10.82502781      16.89176542 
Ag      22.18095659      14.09727627      19.91846928 
Ag      12.33538391      14.21141876      14.58094971 
Ag      17.05060965      21.75067043      21.46782145 
Ag      17.54317698      21.80175342      13.14338533 
Ag      19.76960335      12.18562940      20.64795560 
Au      14.82386682      12.26079274      13.95282658 
Ag      23.18289655      16.90089245      19.39487260 
Au      11.35718051      16.99756826      15.12962272 
Ag      20.06145500      20.17293613      12.54486670 
Ag      14.54513252      20.12686611      22.08833250 
Ag      20.57987881      23.03768028      13.63787671 
Ag      14.15082729      23.03841616      21.04605566 
Ag      24.53849033      14.59141827      17.81840407 
Ag       9.98676766      14.68108830      16.77150174 
Ag      17.34019235      24.73796778      17.33507965 
Ag      21.56449166      10.80999368      14.91140136 
Ag      12.86233699      10.89589581      19.73737516 
Ag      16.49374239       9.80451529      13.83853505 
Au      18.27519923       9.69914733      20.69300816 
Ag      10.56629733      18.29969801      21.34089702 
Au      24.08629914      18.30599024      13.29420442 
Ag      24.44952926      20.38935371      16.82995633 
Ag      10.08290571      20.38834444      17.77918363 
Au      23.74926017      18.36151375      22.04348975 
Ag      10.80528923      18.52509741      12.58445911 
S      19.50768723       9.58908426      14.76874523 
S      14.87140116       9.60373793      19.68572045 
Ag      14.82203986      18.75702837      24.74271982 
Ag      19.82745721      18.87240432       9.85109426 
Ag      18.26075337      13.25111392      10.18756749 
Ag      16.21524192      13.13896264      24.35073892 
Ag      19.35700364      22.00329736      23.38573698 
Au      15.29864726      22.06802996      11.16768549 
S      18.54839379      24.04043537      12.80588588 
S      16.18183027      24.01763213      21.94029890 
S      24.17010841      12.75558043      19.33585015 
S      10.31987333      12.89284295      15.17547049 
Au      12.67768794      13.50374947      11.69228885 
Au      21.92901812      13.28444556      22.77042071 
S       9.00958668      16.21719683      18.38858883 
S      25.52111676      16.18614891      16.30869199 
S      11.35542518      17.13353012      23.32531056 
S      23.21540852      17.19718644      11.39173703 
S      22.90092891      22.77233267      14.28079090 
S      11.83763412      22.77410394      20.39369740 
S      22.30820021      19.33786883      23.63226225 
S      12.30502688      19.45810551      10.95543913 
S      19.05140072       8.96121064      18.61336009 
S      15.64804435       8.89228256      15.87696020 
S      15.88975742      13.35812679       9.73813870 
S      18.61148008      13.21884055      24.68831835 
S      18.48315555      20.36380776      24.90619066 
S      16.20080205      20.47678230       9.68726139 
S      24.23298745      21.32682505      19.04632329 
S      10.25726446      21.34686877      15.55425511 
S      14.95200581      25.16992400      17.45633997 
S      19.72890054      25.18995457      17.22552370 
S      17.14259930      10.38574344      11.57408747 
S      17.48481193      10.25831197      22.84984262 
S      15.98103655      16.84679306      25.61177801 
S      18.51512030      17.03785461       9.02152469 
S      22.15297945      15.32896867      23.90362399 
S      12.34450158      15.56130036      10.60902801 
S      23.67587430      11.93617106      14.67679551 
S      10.78108101      12.10967840      19.93225096 
S      13.79254537      13.11055588      24.23801293 
S      20.70994213      13.26017771      10.34056125 
S      21.77444734      11.14033866      21.80661871 
S      12.95097894      11.35413034      12.63088100 
S      20.78202960      23.42265747      21.99433384 
S      13.97386270      23.48047298      12.55751273 
S      25.27232495      17.08793205      20.74658755 
S       9.26221030      17.16203296      13.86718494 
S      13.84991132      20.92984435      24.31231023 
S      20.81399233      21.02314215      10.33663610 
S      25.48357605      19.42502850      14.84879023 
S       9.11128019      19.52309067      19.82755663 
C      18.99512658      14.51043894      25.93226407 
C      15.54192842      14.68690191       8.52116489 
C      23.49241949      22.99698270      18.86581646 
C      10.92068621      23.04861299      15.74993959 
C      20.87066350       8.79235015      18.79260764 
C      13.84633356       8.68426680      15.58166410 
C      10.68917778      15.42833277      23.15788188 
C      23.84924571      15.47895717      11.50958406 
C       8.20965945      15.17243544      19.66608909 
C      26.35732145      15.19924533      15.00298065 
C      22.91186768      21.06120771      23.81501530 
C      11.76172005      21.19958961      10.75193142 
C      14.81296213      26.27579145      18.92159713 
C      19.87970350      26.32243191      15.78286685 
C      23.95153345      15.51930097      24.21986983 
C      10.52517789      15.70785090      10.40466749 
C      19.69359369      15.95764190       8.11920119 
C      14.64303455      15.86911968      26.40804973 
C      19.86329950      24.93523489      21.50631478 
C      14.91949575      24.99404635      12.97602717 
C      21.33606484      11.58065441      10.73335309 
C      13.25831025      11.40674385      23.79976415 
C      24.80702365      11.15219154      15.89759096 
C      19.87589549       7.84307508      15.22816307 
C      14.39691894       7.89595035      19.18640733 
C      26.39494841      18.25389448      19.87960465 
C       8.13765588      18.25326451      14.82515079 
C      18.84502490      24.31719606      11.01480226 
C      15.83725938      24.23109563      23.73210376 
C      23.30239295      24.29311799      15.23145655 
C      11.40739309      24.30095017      19.46586237 
C      17.40055830      21.35783352       8.61527906 
C      21.15940429      10.10042228      23.19009811 
C      13.59690217      10.36470584      11.22874080 
C      12.01881549      20.78134925      24.38939237 
C      22.64566935      20.87780302      10.30658205 
C       9.07863227      13.19451493      13.85564384 
C      18.54698091       9.26261266      11.20690209 
C      16.12485590       9.06225591      23.14476144 
C       8.60691162      21.03083841      20.74372914 
C      26.05207065      20.90702601      13.92916690 
C      17.28007263      21.19289324      26.01965286 
H      16.80592206      20.41454974      26.63072060 
H      16.50660844      21.73419443      25.46813484 
H      17.82797078      21.88469316      26.66923411 
C      25.39114868      12.98331971      20.69053297 
H      26.33860474      12.52470631      20.38502043 
H      25.00140354      12.47547790      21.58110775 
H      25.55185407      14.04440048      20.91014162 
C       9.64760189      11.33916519      18.70670014 
H       8.79716747      12.01462330      18.55267246 
H       9.29277089      10.38939503      19.12320541 
H      10.13972879      11.16853146      17.74459633 
H      26.58995659      15.87603730      14.17152798 
H      25.71984750      14.38294990      14.64458284 
H      27.28746415      14.78989838      15.41277509 
H      26.74217147      17.76278738      18.96284051 
H      27.24477736      18.46465492      20.53859515 
H      25.88802443      19.19060984      19.62757665 
H      26.50634127      20.57991880      12.98724198 
H      26.81042021      21.40673622      14.54411924 
H      25.22034578      21.59492759      13.73195620 
H      24.23355015      23.66560771      18.41466510 
H      23.22706429      23.35843483      19.86629901 
H      22.58661234      22.97123413      18.24787106 
H      23.35218731      25.14059641      14.53847175 
H      24.28296199      24.15208029      15.70168390 
H      22.55319798      24.49073560      16.00650230 
H      20.20911543      25.25335167      20.51578048 
H      20.09711162      25.70957483      22.24693713 
H      18.78154047      24.75932377      21.48399832 
H      20.94546476      26.44900486      15.55782741 
H      19.44944395      27.29288341      16.05383072 
H      19.37104793      25.92325693      14.89869994 
H      17.87389062      24.37293977      10.50847721 
H      19.44259682      23.50622425      10.58255193 
H      19.37775916      25.26755124      10.89404079 
H      15.21822973      27.25791129      18.65395456 
H      15.35051174      25.87548849      19.78773027 
H      13.75100758      26.37820820      19.17463524 
H      14.78845128      25.70543710      12.15205595 
H      15.98454380      24.77719739      13.11947672 
H      14.49565807      25.40870402      13.89826930 
H      10.41878445      24.15711376      19.01364894 
H      12.13976607      24.51051252      18.67797984 
H      11.36555111      25.14153561      20.16772651 
H      16.85401425      22.07751238       7.99580358 
H      17.87004356      20.60160673       7.97322069 
H      18.17553526      21.87031099       9.19181349 
H      22.98277856      21.02282454       9.27388810 
H      22.98574609      19.90180730      10.66651847 
H      23.05917400      21.66617604      10.94625983 
H      23.36836329      14.89958438      10.71199760 
H      23.60085055      15.02713656      12.47657689 
H      24.93488722      15.49084762      11.36456089 
H      19.99712745      16.47954771       7.20422317 
H      19.17403244      15.02681062       7.85787721 
H      20.57609032      15.71954392       8.72059327 
H      21.31324929      10.98071077       9.81599862 
H      20.73146499      11.09899171      11.50757000 
H      22.36945299      11.67459522      11.08681455 
H      19.05455463       9.62619221      10.30633116 
H      18.14103124       8.26298466      11.01314189 
H      19.24998877       9.21718025      12.04607162 
H      13.70073759       7.88499991      14.84590099 
H      13.38864146       9.60808926      15.21131201 
H      13.36800189       8.39518869      16.52452377 
H      12.74477887      10.11030067      10.58765962 
H      14.04699546       9.45269071      11.63870240 
H      14.34928916      10.91691131      10.65575688 
H      15.73003192      14.28500910       7.51885233 
H      16.17299267      15.56708410       8.68864306 
H      14.48573430      14.96760422       8.61388466 
H       9.43053692      12.70676219      12.93863747 
H       8.93901590      14.26648843      13.67466172 
H       8.12532415      12.75084445      14.16570073 
H      10.19565955      14.97785401       9.65714498 
H      10.32269845      16.72441980      10.04395113 
H       9.99266715      15.54373745      11.34616622 
H       7.21312317      18.35479891      14.24401057 
H       8.57377764      19.24361838      14.98870765 
H      10.80365049      21.19076628      10.21917505 
H      12.51692536      21.72342709      10.15257549 
H      11.64393109      21.70810946      11.71381485 
H      11.12972428      23.44920162      14.75125465 
H      11.84686371      23.05336343      16.33631030 
H      10.16347725      23.66855321      16.24246781 
H      20.92831231       7.60337533      15.04967724 
H      19.24612110       7.20755844      14.59360708 
H      19.61547785       7.66425690      16.27814187 
H      25.06406167      10.14905696      15.54011206 
H      24.36285641      11.09502819      16.89605059 
H      25.71592811      11.76338214      15.95370635 
H      24.10646577      16.53448773      24.60539225 
H      24.54202932      15.38552301      23.30907030 
H      24.25184356      14.78303264      24.97357312 
H      20.03898965      14.81792535      25.79643760 
H      18.86703213      14.05324405      26.92087052 
H      18.32978153      15.37636758      25.83873639 
H      15.05781503      14.89799103      26.70538796 
H      13.79960786      15.70315700      25.73035363 
H      14.30141006      16.41043706      27.29699145 
H      12.20170158      11.45095429      23.51069543 
H      13.36869872      10.76278845      24.67960266 
H      13.83908982      10.99902199      22.96595603 
H      16.56070686       8.06763588      23.29093423 
H      15.42668293       9.04844462      22.29995505 
H      15.60739621       9.37256600      24.06008921 
H      20.76289796       9.17399820      22.75714440 
H      20.36282296      10.60089210      23.75032661 
H      22.00206961       9.87540296      23.85333357 
H      14.40210486       7.26480973      20.08297390 
H      15.13861273       7.52737028      18.46708601 
H      22.21074584      21.58292625      24.47901462 
H      22.96087327      21.58355098      22.85466084 
H      23.90534913      21.03481610      24.27608934 
H      11.58244606      21.50132061      23.68780520 
H      11.70649357      21.02501203      25.41151906 
H      11.67947286      19.77080836      24.14035182 
H      15.28290999      25.16712685      23.86702667 
H      16.79291077      24.29399282      24.26637435 
H      15.24505837      23.39688849      24.12570191 
H       7.83852934      21.55093312      20.15949867 
H       9.46206167      21.69809171      20.90980779 
H       7.28122773      14.76794525      19.24577573 
H       7.97269587      15.80995094      20.52684802 
H       8.86497888      14.35198092      19.98189408 
H       9.61821126      15.45064368      23.38884878 
H      11.21186727      14.78366163      23.87436590 
H      10.84202485      15.03700394      22.14591601 
H      21.29304024       8.64691290      17.79049298 
H      21.08524517       7.91315835      19.41066501 
H      21.31617175       9.68166647      19.25267873 
H      13.40202941       7.86529534      18.73310380 
H       8.18123351      20.72555222      21.70657983 
H       7.92126643      17.77638733      15.78818984 
