322
Properties=species:S:1:pos:R:3 i=209 optimized=T E=-4516.7584935403 pbc="F F F" jobid=102_44-Ag-90_2-000005-PBE
Ag      16.86888928      17.01950685      15.90686868 
Au      17.69640376      16.97873217      18.71523038 
Ag      18.62130212      14.91653738      16.89118501 
Ag      15.89807613      14.93153516      17.69100768 
Ag      19.53614369      17.76569622      16.61398415 
Ag      15.05354774      17.76696824      18.01059408 
Ag      17.29631141      19.49897280      17.33854893 
Ag      17.82474769      15.04147917      13.99959715 
Ag      16.70564731      14.98867997      20.60310422 
Ag      18.23780821      19.49442246      20.18076194 
Ag      16.35977355      19.56204752      14.49541279 
Au      19.49878394      14.91169499      19.84751862 
Ag      15.05184090      15.00404924      14.79505253 
Ag      18.66099481      17.86867985      13.72458180 
Ag      15.94545863      17.81515402      20.93782202 
Au      20.46237186      17.73893836      19.49197707 
Ag      14.13579011      17.80973489      15.17238060 
Au      21.34805784      15.69594390      17.59509412 
Au      13.18846395      15.76661160      17.00951897 
Ag      13.99826655      15.73187703      19.85412193 
Ag      20.53597975      15.76097341      14.77207213 
Ag      15.50022880      20.32209200      19.47554435 
Ag      19.10860233      20.32152955      15.22641518 
Ag      20.06127812      20.31315687      18.01656695 
Ag      14.55908985      20.35969847      16.68405169 
Ag      17.66045328      12.78254897      18.76744709 
Ag      16.84091036      12.80207304      15.79122930 
Ag      15.99407934      17.10355215      13.05570965 
Ag      18.60201259      17.00719049      21.62489782 
Ag      19.61618524      12.98192236      15.08016054 
Ag      14.87127235      12.98701150      19.47459008 
Au      13.24586421      18.50720948      20.10350193 
Ag      21.38452392      18.51717487      14.55084012 
Ag      20.38743698      12.90951486      17.85839059 
Ag      14.11003304      12.96714548      16.69578489 
Ag      22.19768000      18.56365335      17.26293903 
Ag      12.39429032      18.61684918      17.39142949 
Ag      17.77615408      21.98915861      18.69506110 
Ag      16.84714716      22.02157393      16.02627530 
Ag      20.48345525      19.22011329      21.98718622 
Ag      14.10093641      19.30856336      12.70024560 
Ag      18.78416701      14.28007302      22.54692267 
Ag      15.71819832      14.42672061      12.06583403 
Ag      17.24331252      19.33882876      11.70298044 
Ag      17.36084014      19.23963522      22.98375163 
Ag      18.19187639      16.22808822      11.33165359 
Ag      16.37776376      16.12798864      23.28326258 
Ag      21.42639111      16.24535833      21.74456413 
Ag      13.20635322      16.32978279      12.88983393 
Ag      23.22467010      16.47415795      15.58782526 
Ag      11.33611182      16.55262953      19.07953950 
Ag      22.35762829      13.71659237      15.87501663 
Ag      12.13696746      13.77121970      18.69211015 
Ag      15.02128006      22.79836248      18.16597830 
Ag      19.60571587      22.78053773      16.57707084 
Ag      17.69060837      12.40675249      12.97639988 
Ag      16.77600536      12.31285843      21.53514538 
Ag      20.05484212      14.21308119      12.49187257 
Ag      14.49096153      14.15652491      22.12627109 
Ag      21.80659166      21.06591963      15.81002244 
Ag      12.79403824      21.08556955      18.90119664 
Ag      13.70689761      17.01157439      22.49554945 
Ag      20.87238576      17.07473298      12.15673634 
Ag      22.34626706      19.84047852      19.80811928 
Ag      12.28891666      19.96896109      14.89706539 
Ag      20.00923342      21.70859439      20.46813682 
Ag      14.60483994      21.78469688      14.24854315 
Ag      15.76999263      10.82436799      17.65454401 
Ag      18.69970923      10.79848313      16.90912233 
Au      22.14476299      14.04036395      19.86157857 
Au      12.37313847      14.18400930      14.73665409 
Ag      17.08103763      21.71063717      21.48675675 
Ag      17.55494588      21.79035480      13.23485413 
Ag      19.76542468      12.16826504      20.65277412 
Ag      14.73930677      12.27557801      13.90608456 
Ag      23.20909787      16.82170956      19.37989471 
Ag      11.37213281      16.96230197      15.22201818 
Ag      20.00868891      20.15295987      12.59061447 
Ag      14.59849465      20.09494947      22.11649837 
Ag      20.47813391      22.99450355      13.68102325 
Ag      14.17256231      22.98350379      21.06829475 
Ag      24.63431115      14.56965403      17.81820196 
Ag       9.91826086      14.66248108      16.74504850 
Ag      17.32726423      24.75244180      17.38862218 
Ag      21.56181633      10.85850416      14.81633387 
Ag      12.87738105      10.90653993      19.73952707 
Ag      16.43709558       9.84227647      13.96904758 
Ag      18.03969225       9.77552712      20.63572123 
Ag      10.58799939      18.31209428      21.34479342 
Ag      24.07435827      18.27015973      13.38149086 
Ag      24.45751702      20.39177464      16.92187750 
Ag      10.12551692      20.42533765      17.79897453 
Au      23.77575356      18.34736291      22.03810798 
Ag      10.90842194      18.49409038      12.63669425 
S      19.50978850       9.63094396      14.75527458 
S      14.91585842       9.65841466      19.80054865 
Ag      14.80041222      18.78757074      24.77948083 
Ag      19.84877320      18.93747696       9.89939639 
Au      18.28714068      13.39302655      10.08957521 
Ag      16.26621461      13.16389886      24.39422137 
Ag      19.40143492      21.87948578      23.41269516 
Ag      15.24984254      22.04894512      11.32409553 
S      18.45722802      24.07055608      12.86573649 
S      16.21456399      23.99278625      21.91217849 
S      24.20456818      12.83058581      19.45537848 
S      10.31819975      12.91783305      15.10067200 
Ag      12.72431611      13.42406092      11.83400529 
Ag      21.77414875      13.23769359      22.75216429 
S       8.99211910      16.18043700      18.37268899 
S      25.59829080      16.07731478      16.19965757 
S      11.36825880      17.16780639      23.33747381 
S      23.24426651      17.17898540      11.39008699 
S      22.82316393      22.73580251      14.26264632 
S      11.83172751      22.76858191      20.46811891 
S      22.36582575      19.33809007      23.64882830 
S      12.31644723      19.48700062      10.96416806 
S      18.83802380       8.87432608      18.57703004 
S      15.60747616       8.90225748      15.99937294 
S      15.94160402      13.41983247       9.78120274 
S      18.65115560      13.25294223      24.79671894 
S      18.52212715      20.25042598      24.94442896 
S      16.13020242      20.44632869       9.76816213 
S      24.20112566      21.35737800      19.12624334 
S      10.35572616      21.39031559      15.58895125 
S      14.94707682      25.17359665      17.47497055 
S      19.71323781      25.14066754      17.31800922 
S      16.94750359      10.40438216      11.67880275 
S      17.45053008      10.33546321      22.91566534 
S      16.02310830      16.91548371      25.64224717 
S      18.51923764      17.16034713       9.01006878 
S      22.10660570      15.30187420      23.93483665 
S      12.44092143      15.50665648      10.66453306 
S      23.66338172      12.00916947      14.64930657 
S      10.79037131      12.08185400      19.90174564 
S      13.83200804      13.18386599      24.29353960 
S      20.66139715      13.36879071      10.23556261 
S      21.64807164      11.01378612      21.83208997 
S      12.81302126      11.18904026      12.72421827 
S      20.79936577      23.37576279      22.11191421 
S      13.85378343      23.51755412      12.65719044 
S      25.28670097      17.09384143      20.70865001 
S       9.30320387      17.19767923      13.89564033 
S      13.84855223      20.96528390      24.31210540 
S      20.85791206      21.06830792      10.44563845 
S      25.49531629      19.45852762      14.93934366 
S       9.13267667      19.49573825      19.80523367 
C      19.01590041      14.55398577      26.03974476 
C      15.57313390      14.72571945       8.54566915 
C      23.41516062      23.00208778      18.90780246 
C      11.08748019      23.06101011      15.80557452 
C      20.64000092       8.61104947      18.82504229 
C      13.80154059       8.69413066      15.72634271 
C      10.69566154      15.46125542      23.21815372 
C      23.85592817      15.44898950      11.49116486 
C       8.17935588      15.14080114      19.65044542 
C      26.33552719      15.01323562      14.89562532 
C      23.01282008      21.04610473      23.83275161 
C      11.70307143      21.21191750      10.80114711 
C      14.79028186      26.27426295      18.94330735 
C      19.89337220      26.26978677      15.87431407 
C      23.91930333      15.45517600      24.19631493 
C      10.62944341      15.70726970      10.42546017 
C      19.68377161      16.13424750       8.02604895 
C      14.75313854      15.89548649      26.49273515 
C      19.87613383      24.91901006      21.73656069 
C      14.79095175      25.03501174      13.09843667 
C      21.18513339      11.62800995      10.49309101 
C      13.22445093      11.50147303      23.87178269 
C      24.76878160      11.19516082      15.87643247 
C      19.91179088       7.89239057      15.21844383 
C      14.48769802       7.92817049      19.32901081 
C      26.38719598      18.27038712      19.82887266 
C       8.17628033      18.34015492      14.79299052 
C      18.77585814      24.34637571      11.07705428 
C      15.90650374      24.22626721      23.70850377 
C      23.26756353      24.25079548      15.20359319 
C      11.41215589      24.30414168      19.54974875 
C      17.35701553      21.31062627       8.70844894 
C      21.02207419       9.99736304      23.22958208 
C      13.40550591      10.16876294      11.31483118 
C      12.01475112      20.84054289      24.35666370 
C      22.68783334      20.89622988      10.45459659 
C       9.16249137      13.27118456      13.72105969 
C      18.35871083       9.31962843      11.23263608 
C      16.04689038       9.21470385      23.29456469 
C       8.61358083      20.99039611      20.73729161 
C      26.02828156      20.95556433      14.01968666 
C      17.33355609      21.11310919      26.04879211 
H      16.84439626      20.34913150      26.66628049 
H      16.57051363      21.66411495      25.49159137 
H      17.89308822      21.80112533      26.69241147 
C      25.35563443      13.14610171      20.84822894 
H      26.32133667      12.69357057      20.59254602 
H      24.94519819      12.66025557      21.74224513 
H      25.48893070      14.21872365      21.02512920 
C       9.68178440      11.29162375      18.66188835 
H       8.81901816      11.95169587      18.50953679 
H       9.34039832      10.33136940      19.06420352 
H      10.18064899      11.13783595      17.70057637 
H      26.60704096      15.65888162      14.05123043 
H      25.63373890      14.24204349      14.55703316 
H      27.24036983      14.54197150      15.29565083 
H      26.75534750      17.77076047      18.92503794 
H      27.22538913      18.51515983      20.49090334 
H      25.86035180      19.18919401      19.55352367 
H      26.48055403      20.63770994      13.07325688 
H      26.78174368      21.47827207      14.62067071 
H      25.18010491      21.62372601      13.82283098 
H      24.14649400      23.68406885      18.46053763 
H      23.12018035      23.37054445      19.89773994 
H      22.52360433      22.94244937      18.27130726 
H      23.29409599      25.10153317      14.51328305 
H      24.26455686      24.10418113      15.63631855 
H      22.54949765      24.44776312      16.00739083 
H      20.24919278      25.32551698      20.78937728 
H      20.07073006      25.63278525      22.54540701 
H      18.79768764      24.73734271      21.65684439 
H      20.96410164      26.39212719      15.67276335 
H      19.46051740      27.24184140      16.13465799 
H      19.40194966      25.86953055      14.98073073 
H      17.81273996      24.42056359      10.55786762 
H      19.36802164      23.52943707      10.64856568 
H      19.32349968      25.28945882      10.96576614 
H      15.23390522      27.24594721      18.70020523 
H      15.28278597      25.84954300      19.82485058 
H      13.72266373      26.40592754      19.15512827 
H      14.60526522      25.78281313      12.31872728 
H      15.86734598      24.83956777      13.17187792 
H      14.41989988      25.40675500      14.06055901 
H      10.41235699      24.17915978      19.11687556 
H      12.13190791      24.50043079      18.74716127 
H      11.39983875      25.14573252      20.25155048 
H      16.82456258      22.02764367       8.07352345 
H      17.84017659      20.55226070       8.07936541 
H      18.12142977      21.83057768       9.29289659 
H      23.05563770      21.17372211       9.45993048 
H      22.99966566      19.87139085      10.67984366 
H      23.09729936      21.58220806      11.20519171 
H      23.35888195      14.86974447      10.70410590 
H      23.62955508      14.99767102      12.46396715 
H      24.93880310      15.44869138      11.32451600 
H      19.95060438      16.68959183       7.11995363 
H      19.16983180      15.20370688       7.75464441 
H      20.58839570      15.88554377       8.58902277 
H      20.99923521      11.05601266       9.57721729 
H      20.66033619      11.16793360      11.33600597 
H      22.26126428      11.64379199      10.70349983 
H      18.81204013       9.71010589      10.31449359 
H      17.97052983       8.31179930      11.04557765 
H      19.10256843       9.28447827      12.03647060 
H      13.64622074       7.79335095      15.12108763 
H      13.36572289       9.55598105      15.20777842 
H      13.31157490       8.56435944      16.69854288 
H      12.54036270       9.92881261      10.68626945 
H      13.84237810       9.24624127      11.71498554 
H      14.16519110      10.68835614      10.72255919 
H      15.78584282      14.32265071       7.54904211 
H      16.17096650      15.62809175       8.71829969 
H      14.50623147      14.96578568       8.63339533 
H       9.56428614      12.80217523      12.81414777 
H       9.03718886      14.34928533      13.57033449 
H       8.19422760      12.82097182      13.97119199 
H      10.29951584      14.99726319       9.65876606 
H      10.45204266      16.73336004      10.07883221 
H      10.07000105      15.53804898      11.35021495 
H       7.26597257      18.44642689      14.19139030 
H       8.62847318      19.32618771      14.93820644 
H      10.71412737      21.18455238      10.33019669 
H      12.40122447      21.75822978      10.15430715 
H      11.63608798      21.72210255      11.76698008 
H      11.37184389      23.43896175      14.81624792 
H      11.97902594      23.02958130      16.44373765 
H      10.33403366      23.71970807      16.25125439 
H      20.97288437       7.77578138      15.45698326 
H      19.66236197       7.25435084      14.36254121 
H      19.30157105       7.60761459      16.08469269 
H      25.08973425      10.23056284      15.46770853 
H      24.27547107      11.04590988      16.84138791 
H      25.64451185      11.83914780      16.02346152 
H      24.12502478      16.48028727      24.52803567 
H      24.48489925      15.25493556      23.28198195 
H      24.21486155      14.74539628      24.97726261 
H      20.06156538      14.86048828      25.91728086 
H      18.87144963      14.11342391      27.03304384 
H      18.35749321      15.42273348      25.92444896 
H      15.22037113      14.94993696      26.79530295 
H      13.90004007      15.67759777      25.84280011 
H      14.41248432      16.43785702      27.38140506 
H      12.16659458      11.58635156      23.59694329 
H      13.32107238      10.85694553      24.75285838 
H      13.77760463      11.06690482      23.03311179 
H      16.44815886       8.20836014      23.46027900 
H      15.32351807       9.19429507      22.47170107 
H      15.56386564       9.56819673      24.21262374 
H      20.55444235       9.09393228      22.82047640 
H      20.28252682      10.53786736      23.82892720 
H      21.87917576       9.72151116      23.85451132 
H      14.70337893       7.28435838      20.18974182 
H      15.11190748       7.63213024      18.47650071 
H      22.32610465      21.58509202      24.49777393 
H      23.07287848      21.56958661      22.87366551 
H      24.00595191      20.99362887      24.29225459 
H      11.60068803      21.55720790      23.63813622 
H      11.68538164      21.09996320      25.36952458 
H      11.66873057      19.83083108      24.11347959 
H      15.35862036      25.16570079      23.84595747 
H      16.87324519      24.28961545      24.22249425 
H      15.31886060      23.39790433      24.12108387 
H       7.84846970      21.51339045      20.15146182 
H       9.46373643      21.65953178      20.92100602 
H       7.26019479      14.71918765      19.22805384 
H       7.92469642      15.79040266      20.49692754 
H       8.83666096      14.33261603      19.99208264 
H       9.62350668      15.49267665      23.44200365 
H      11.21399081      14.83924250      23.95767301 
H      10.85392486      15.03499835      22.22127302 
H      21.11623417       8.49833204      17.84394111 
H      20.77824584       7.68860283      19.40109505 
H      21.10250362       9.44586346      19.36439939 
H      13.43047232       7.83344635      19.06504020 
H       8.17913590      20.66940154      21.69102215 
H       7.92883831      17.89853379      15.76516629 
