322
Properties=species:S:1:pos:R:3 i=225 optimized=T E=-4361.9244484787 pbc="F F F" jobid=102_44-Ag-50_0-000009-PBE
Au      16.89284619      17.12083988      15.82958582 
Ag      17.72572896      17.06974478      18.68472200 
Ag      18.67326260      15.02535468      16.81953844 
Au      15.97334658      15.02416527      17.58565523 
Au      19.58423063      17.83657977      16.61525777 
Au      15.05251591      17.84229783      17.94777238 
Ag      17.30090463      19.59432019      17.28777478 
Ag      17.86830691      15.12298113      13.92101464 
Au      16.71128601      15.05770953      20.53639975 
Ag      18.23826703      19.55559147      20.14039778 
Au      16.36680929      19.68609612      14.41983038 
Ag      19.49439987      15.01273620      19.82156793 
Ag      15.09002560      15.11668715      14.66808067 
Ag      18.67368176      17.97256339      13.70534140 
Ag      15.93361887      17.88478422      20.87546172 
Au      20.46384090      17.81597934      19.48449478 
Ag      14.16064982      17.87645267      15.10610606 
Au      21.42737586      15.77513004      17.65225205 
Au      13.14041208      15.83479249      16.87369495 
Au      13.95635938      15.74973951      19.74594177 
Au      20.61300405      15.83744430      14.69413387 
Ag      15.48896388      20.35996178      19.43933797 
Ag      19.08893484      20.43292894      15.16281200 
Ag      20.07492831      20.34220375      17.98517116 
Ag      14.55996033      20.42423196      16.65285458 
Au      17.70101822      12.80987221      18.73945357 
Au      16.86458539      12.81306786      15.63671734 
Ag      16.01255502      17.21705944      12.91976272 
Ag      18.58950545      17.07586866      21.59489832 
Au      19.65939074      13.04744470      15.03853642 
Au      14.87680966      13.01426130      19.32442760 
Au      13.20742608      18.55667755      20.04094181 
Ag      21.39875921      18.60294501      14.51033203 
Au      20.45459926      13.06438211      17.87338620 
Au      14.10336728      13.06709438      16.52261108 
Ag      22.29015595      18.65899550      17.22606800 
Ag      12.34354738      18.64149614      17.33167804 
Ag      17.73883761      22.07895794      18.68527484 
Ag      16.83597849      22.16967803      16.00945543 
Ag      20.47892157      19.33026408      21.98487816 
Au      14.11002378      19.41553212      12.65056565 
Au      18.65360732      14.31305843      22.50778632 
Au      15.82292546      14.53256463      11.95521422 
Ag      17.32411965      19.47099493      11.62410789 
Ag      17.28056318      19.27295102      22.94191046 
Au      18.24578301      16.32477574      11.31347688 
Ag      16.32800633      16.13220428      23.21206066 
Au      21.38053873      16.40899982      21.74397104 
Ag      13.21522849      16.48603124      12.77153565 
Au      23.21441575      16.52630560      15.48583351 
Ag      11.31939017      16.50986550      19.01807447 
Ag      22.38813239      13.76178245      15.86117330 
Ag      12.13666578      13.74921896      18.54508445 
Au      14.94413981      22.81954168      18.16503927 
Au      19.64364847      22.80631003      16.62163712 
Ag      17.81071055      12.43999762      12.84516031 
Ag      16.69053994      12.31336950      21.46831593 
Au      20.17857662      14.26254461      12.45568109 
Au      14.39724729      14.15808390      22.00316211 
Au      21.81097674      21.13598378      15.73620675 
Ag      12.73703343      21.11500759      18.88586156 
Au      13.69210228      17.03530763      22.40635332 
Au      20.87291216      17.23864207      12.05913161 
Ag      22.34010883      19.93844216      19.80403743 
Au      12.32697353      20.02837934      14.84559021 
Ag      20.01186304      21.76838335      20.40340412 
Ag      14.57964446      21.89819814      14.22218545 
Au      15.73928560      10.89634467      17.51091039 
Au      18.75388586      10.91341544      16.89219881 
Ag      22.19700497      14.16620679      19.98334091 
Au      12.38504214      14.32824390      14.52144850 
Ag      17.06416819      21.74170785      21.47207298 
Ag      17.51027837      21.94477391      13.19350971 
Au      19.75213602      12.22945927      20.58528780 
Au      14.82470065      12.38593922      13.74817767 
Au      23.24854836      16.96109874      19.39918987 
Ag      11.35644682      17.05040663      15.07654427 
Ag      20.03785614      20.24910439      12.53571744 
Ag      14.53446811      20.18114956      22.06492745 
Ag      20.46864167      23.08989665      13.64651570 
Au      13.95600574      23.20884874      21.06988107 
Ag      24.57973994      14.71623251      17.80154872 
Ag       9.96050518      14.71212600      16.59011606 
Au      17.26051517      24.99317181      17.33477019 
Au      21.61323935      10.87270373      14.70557385 
Ag      12.97013414      10.83551935      19.50364266 
Ag      16.42517211       9.91838663      13.79288451 
Ag      18.01675437       9.83407306      20.55273730 
Au      10.47414135      18.34850829      21.21891332 
Ag      24.07624388      18.42034491      13.37881808 
Au      24.51512095      20.54139031      16.86373729 
Au      10.07987001      20.47103673      17.73676866 
Au      23.80320580      18.60132246      22.08075952 
Ag      10.90069227      18.63323130      12.54361425 
S      19.57526886       9.69289455      14.78674368 
S      15.02366051       9.58356743      19.60610860 
Ag      14.75770469      18.72011450      24.69136651 
Au      19.77926261      19.12554749       9.74270126 
Au      18.33968224      13.44382228       9.97231622 
Ag      16.24870784      13.12874714      24.31073931 
Au      19.33826791      22.00151792      23.40944488 
Au      15.23288760      22.31478085      11.28590316 
S      18.46079295      24.21331797      12.90962899 
S      16.04940171      23.99848468      21.81104442 
S      24.26331705      12.91995772      19.38224025 
S      10.35118893      13.01867080      14.89747851 
Au      12.67315195      13.61547442      11.56998920 
Au      21.91248282      13.28928929      22.80408972 
S       8.99571104      16.17248885      18.24513076 
S      25.53373302      16.23971191      16.15898945 
S      11.32062547      17.21229990      23.12017557 
S      23.22121530      17.35773496      11.35991539 
S      22.83101161      22.68340842      14.06696722 
S      11.71033624      22.74176719      20.52561438 
S      22.35944909      19.55219827      23.67001667 
S      12.39474863      19.54238805      10.87893727 
S      18.90746806       8.96482597      18.50340588 
S      15.54058624       9.02990778      15.82855703 
S      15.99474400      13.51079946       9.69746674 
S      18.64995194      13.26563816      24.71359131 
S      18.45397855      20.37300796      24.86792213 
S      16.13471946      20.72972645       9.79818873 
S      24.14885804      21.48807525      19.00618542 
S      10.43303218      21.43591656      15.59829137 
S      14.91161348      25.17931608      17.41202412 
S      19.61084465      25.16734814      17.30229349 
S      17.15015283      10.39288326      11.54183127 
S      17.33300852      10.31488141      22.83813271 
S      16.05580531      16.90271997      25.58060996 
S      18.54092350      17.26470051       8.99263997 
S      22.18344923      15.38037366      23.83163768 
S      12.39314155      15.69633687      10.51682073 
S      23.65942073      12.03956469      14.56865889 
S      10.84038808      11.95278968      19.65197659 
S      13.80638140      13.18107111      24.13482122 
S      20.70158291      13.42587773      10.22713138 
S      21.59102417      11.16314330      21.84497570 
S      12.95285292      11.43731448      12.45039177 
S      20.64366964      23.49100617      22.09352113 
S      13.89844846      23.72106391      12.66343635 
S      25.26591178      17.30652712      20.73126440 
S       9.27292488      17.32787228      13.76264590 
S      13.83494655      20.93020486      24.32865271 
S      20.78325534      21.19321376      10.32837186 
S      25.53782831      19.60927776      14.92766933 
S       9.08418484      19.49910509      19.66668463 
C      19.00955950      14.56774956      25.95208859 
C      15.61809252      14.82765746       8.48011876 
C      23.30659939      23.09393410      18.73957400 
C      11.19177540      23.08030358      15.87328438 
C      20.71321678       8.79199502      18.77681768 
C      13.72892092       8.92737754      15.55399089 
C      10.68274127      15.49961453      22.97096820 
C      23.81367897      15.62621670      11.50204113 
C       8.18746964      15.07583140      19.47858897 
C      26.31438382      15.18728591      14.87328187 
C      22.94614016      21.27687523      23.88535756 
C      11.84515327      21.28314642      10.68465637 
C      14.62812897      26.30168222      18.83942666 
C      19.95808466      26.27200154      15.87581130 
C      23.99014129      15.60260022      24.05942796 
C      10.58349628      15.89309409      10.27798956 
C      19.76838036      16.26483068       8.06696118 
C      14.83337705      15.84597680      26.45581523 
C      19.66120486      24.99124132      21.70635715 
C      14.86029920      25.21578638      13.11611681 
C      21.22400422      11.68525571      10.47310331 
C      13.20160485      11.50138121      23.70712796 
C      24.74899595      11.21225851      15.79856131 
C      19.98469092       7.96443025      15.25772017 
C      14.67477521       7.85975684      19.07170608 
C      26.37806756      18.42576767      19.79888216 
C       8.15044582      18.44455260      14.69508802 
C      18.70768429      24.53150448      11.11664114 
C      15.81734270      24.26857198      23.61187238 
C      23.44375228      24.15359068      14.98032335 
C      11.12770322      24.22689469      19.61657416 
C      17.29528737      21.62460840       8.69537133 
C      20.89567342      10.17367110      23.22326806 
C      13.61093811      10.48180780      11.03093721 
C      11.99965266      20.84630320      24.34107896 
C      22.60338447      20.97598250      10.23067545 
C       9.17877629      13.41234197      13.54294117 
C      18.54332559       9.23474529      11.24751874 
C      15.95894976       9.13544201      23.14216477 
C       8.51813937      20.96149720      20.61558295 
C      26.09051937      21.09524151      14.00939055 
C      17.27132756      21.22570504      25.98172715 
H      16.81471365      20.45011542      26.60963633 
H      16.48417469      21.74755183      25.43011611 
H      17.82556210      21.93178538      26.60973268 
C      25.49618042      13.23208290      20.70880858 
H      26.45910220      12.80947979      20.39915525 
H      25.14830259      12.72836428      21.61891688 
H      25.61523720      14.30337670      20.90452097 
C       9.80124638      11.18076124      18.34311275 
H       8.92284076      11.81828227      18.18460791 
H       9.47793732      10.19387383      18.69252663 
H      10.33884571      11.08334264      17.39532083 
H      26.55949412      15.82216446      14.01286448 
H      25.64865978      14.37642898      14.55711493 
H      27.23750349      14.76852150      15.29127376 
H      26.78297624      17.86108069      18.95084704 
H      27.18855407      18.73019833      20.47117914 
H      25.84964048      19.31011849      19.43070849 
H      26.58775757      20.75479669      13.09335404 
H      26.80728796      21.64683129      14.62845295 
H      25.23664201      21.73580834      13.75227757 
H      24.00641347      23.78707361      18.26038193 
H      23.01824102      23.47913378      19.72536930 
H      22.40770622      22.97532413      18.12098617 
H      23.55375610      24.98532761      14.27456459 
H      24.42147603      23.90864853      15.41385754 
H      22.75499603      24.43702307      15.78237860 
H      20.12803880      25.47601097      20.84068778 
H      19.69860827      25.66404546      22.57064224 
H      18.61976937      24.74737503      21.46878247 
H      21.04410313      26.28730970      15.72548036 
H      19.60850688      27.27891908      16.13076179 
H      19.46411945      25.91737177      14.96459065 
H      17.72384498      24.57769784      10.63412711 
H      19.31002215      23.74309029      10.65206600 
H      19.21916373      25.49442165      11.00326119 
H      14.97584319      27.30420047      18.56602901 
H      15.14927598      25.94707029      19.73464365 
H      13.54887193      26.32503492      19.03173328 
H      14.75039501      25.95205262      12.31172493 
H      15.92127844      24.98262944      13.26515968 
H      14.43875853      25.61650136      14.04553439 
H      10.12720705      24.00226849      19.22611595 
H      11.79498163      24.46848463      18.78312534 
H      11.06803880      25.07565048      20.30700798 
H      16.72083789      22.32648929       8.08062680 
H      17.77286176      20.87196157       8.05573494 
H      18.06915908      22.15885010       9.25326371 
H      22.91898686      21.15692714       9.19684796 
H      22.90838252      19.96944823      10.53415978 
H      23.06105602      21.71714682      10.89663768 
H      23.31108622      15.02773281      10.73338441 
H      23.58860156      15.21026752      12.49087988 
H      24.89620189      15.62154853      11.32967754 
H      20.03595689      16.80961724       7.15441795 
H      19.29088541      15.31012251       7.81125532 
H      20.66360119      16.07122761       8.66562636 
H      21.11108343      11.14790540       9.52463284 
H      20.63480475      11.20169552      11.25744472 
H      22.27948850      11.69964225      10.76956750 
H      19.04435896       9.53226952      10.31928303 
H      18.13534854       8.22446012      11.12852697 
H      19.25696978       9.24696310      12.07882989 
H      13.53228377       8.10493444      14.85601271 
H      13.33249728       9.86140943      15.14103943 
H      13.24164893       8.71558338      16.51390289 
H      12.76916744      10.25751447      10.36541861 
H      14.04334027       9.55214770      11.41961446 
H      14.38204591      11.03904395      10.48921915 
H      15.83948873      14.43669515       7.48020507 
H      16.20681070      15.73195708       8.66870982 
H      14.54802453      15.05491583       8.56636978 
H       9.59298187      13.01380731      12.60844821 
H       9.01866731      14.49280304      13.45312834 
H       8.22636202      12.91766335      13.76866816 
H      10.24867988      15.17558224       9.52077748 
H      10.41614544      16.91672993       9.91934316 
H      10.02874687      15.74060574      11.20840931 
H       7.26261207      18.62038664      14.07657081 
H       8.62623005      19.40273890      14.92404894 
H      10.88377710      21.27576235      10.15775097 
H      12.59563694      21.81285193      10.08431114 
H      11.73325123      21.78849902      11.64875542 
H      11.46545873      23.48145684      14.88951666 
H      12.09254363      23.00548469      16.49538277 
H      10.45055834      23.73039316      16.35111916 
H      19.81098809       7.33051752      14.38009928 
H      19.31686226       7.66579610      16.07627854 
H      21.02695523       7.87264268      15.57483836 
H      25.02796932      10.22491473      15.41474670 
H      24.26668418      11.11730029      16.77602547 
H      25.64783631      11.83168006      15.90692306 
H      24.15501559      16.63653140      24.38731610 
H      24.54144576      15.41968619      23.13283067 
H      24.32044186      14.90369339      24.83647008 
H      20.04938735      14.89071852      25.82158461 
H      18.88325517      14.11645589      26.94364209 
H      18.33348992      15.42472163      25.84781923 
H      15.33701119      14.91914840      26.75881168 
H      13.98181792      15.59369396      25.81687804 
H      14.48328706      16.38045118      27.34589155 
H      12.17186333      11.59058217      23.34221838 
H      13.21900224      10.88721060      24.61513333 
H      13.82109667      11.03993400      22.93224171 
H      16.39028403       8.13846964      23.28875300 
H      15.25947746       9.11255859      22.29910036 
H      15.43703430       9.44011548      24.05627568 
H      20.41754617       9.28547184      22.79330996 
H      20.15589857      10.74185989      23.79643051 
H      21.73019780       9.87816131      23.86976534 
H      15.25031987       7.19590723      19.72843880 
H      15.01111208       7.72115974      18.03539931 
H      22.22359452      21.78578610      24.53551910 
H      23.00985624      21.81017243      22.93216069 
H      23.92964949      21.25360216      24.36736430 
H      11.61390452      21.64454074      23.69631584 
H      11.65826446      21.00336719      25.37076947 
H      11.63315284      19.87922727      23.98269072 
H      15.26908767      25.20560272      23.76119036 
H      16.81244572      24.34417638      24.06745168 
H      15.26136531      23.43790905      24.06191138 
H       7.80851527      21.51511931      19.98975195 
H       9.36135101      21.60397185      20.89658639 
H       7.26424069      14.67820925      19.04195055 
H       7.94122875      15.68290370      20.35825535 
H       8.84319920      14.24876442      19.77519269 
H       9.59828312      15.51646383      23.12649265 
H      11.16900932      14.90299454      23.75259344 
H      10.92161351      15.07081255      21.99125372 
H      21.20059974       8.61460796      17.81107536 
H      20.88042892       7.92958548      19.43299102 
H      21.13730376       9.69066293      19.23769432 
H      13.60956094       7.62810483      19.16230940 
H       8.00769170      20.59543435      21.51403547 
H       7.86104998      17.94771570      15.62829883 
