322
Properties=species:S:1:pos:R:3 i=250 optimized=T E=-4399.7208583293 pbc="F F F" jobid=102_44-Ag-59_8-000008-PBE
Au      16.88243044      17.06710057      15.87930899 
Au      17.71494147      17.07466827      18.66855993 
Ag      18.66969446      15.01410115      16.88324584 
Ag      15.91181728      14.98047066      17.65513579 
Ag      19.57450541      17.83774492      16.60449581 
Ag      15.01561824      17.87718293      17.96858496 
Au      17.32175503      19.58706158      17.27676629 
Ag      17.84317684      15.12186312      13.93497911 
Au      16.70180942      15.08499197      20.55021592 
Ag      18.24613149      19.60960794      20.13222904 
Au      16.40802883      19.67210394      14.45899606 
Ag      19.49638416      15.04695672      19.79393840 
Au      15.07132496      15.07025923      14.70660130 
Au      18.70993805      17.95644518      13.63180280 
Au      15.90903320      17.98502146      20.84450200 
Ag      20.45927839      17.83429361      19.45440929 
Ag      14.17229403      17.89238731      15.10376673 
Au      21.40909319      15.80601942      17.60270633 
Ag      13.22106393      15.84160369      16.89040859 
Au      13.97782496      15.85674634      19.77840557 
Ag      20.56124185      15.83285801      14.73519200 
Ag      15.47112630      20.42847108      19.40288747 
Ag      19.15709629      20.43551256      15.18635733 
Ag      20.11012286      20.42905208      17.95347851 
Ag      14.55681589      20.46654406      16.61710713 
Ag      17.68671016      12.83795280      18.74249013 
Ag      16.82627140      12.87898868      15.70207455 
Au      16.01757998      17.18231417      12.92204324 
Au      18.62762681      17.14652161      21.58441890 
Au      19.59566503      13.06317822      15.04617790 
Ag      14.89976020      12.98809388      19.44724490 
Ag      13.16780491      18.65248015      20.03543958 
Au      21.40740265      18.57736318      14.54418692 
Ag      20.42518897      13.01541902      17.88232872 
Ag      14.11813544      13.03019402      16.62245564 
Ag      22.25627267      18.66269844      17.25106959 
Ag      12.37643066      18.73598936      17.28011386 
Au      17.81315580      22.09799116      18.65366416 
Ag      16.89083560      22.16206282      15.97979152 
Ag      20.50139830      19.30884101      21.98328417 
Ag      14.23141542      19.44648452      12.56777096 
Ag      18.83444785      14.47703078      22.57937666 
Ag      15.70914532      14.50835583      11.93563106 
Au      17.35635946      19.44565699      11.63842856 
Ag      17.33856983      19.36182716      22.94108489 
Ag      18.25764224      16.24232439      11.25933359 
Au      16.38046261      16.28481007      23.23224184 
Ag      21.39255721      16.34127850      21.79046705 
Ag      13.21793991      16.47958054      12.77002836 
Ag      23.27001135      16.57248005      15.54517927 
Au      11.38224621      16.57946664      18.94304048 
Au      22.34002702      13.82015072      15.86765482 
Au      12.23726681      13.82696282      18.69583634 
Ag      15.05280663      22.92301335      18.15082262 
Ag      19.67490012      22.89692069      16.51092289 
Ag      17.70247521      12.48581444      12.86787725 
Au      16.92416288      12.48120858      21.52913702 
Au      20.11375112      14.22993330      12.48606355 
Au      14.42271703      14.28847812      22.05244701 
Ag      21.87836119      21.14813382      15.71134751 
Ag      12.79773120      21.24038617      18.79096275 
Ag      13.71049003      17.17000983      22.43387514 
Ag      20.94587631      17.14299061      12.09097375 
Au      22.30844176      19.98878588      19.78081694 
Ag      12.33791010      20.04509231      14.73688014 
Au      20.05114673      21.78431676      20.43830024 
Au      14.66657637      21.87625272      14.18601894 
Ag      15.80797471      10.87428343      17.54966870 
Au      18.73095914      10.96508253      16.83878896 
Au      22.14402927      14.16952070      19.89846727 
Au      12.40850997      14.28815931      14.61095361 
Ag      17.07934742      21.85236481      21.43909091 
Ag      17.59796951      21.91229813      13.15948150 
Ag      19.81957181      12.33595759      20.67399700 
Ag      14.73496338      12.38472634      13.78673793 
Au      23.19236043      16.96226697      19.41405481 
Ag      11.43193975      17.08239720      15.09430879 
Ag      20.11477116      20.28004399      12.57100016 
Ag      14.60196834      20.22807263      22.05320868 
Ag      20.59251011      23.12572563      13.66519847 
Ag      14.16697149      23.10662588      21.03598129 
Ag      24.56540781      14.66538759      17.82022444 
Ag       9.96186039      14.82568315      16.61228005 
Ag      17.41212359      24.84731241      17.37431684 
Au      21.38680071      10.74893335      14.72879922 
Au      13.21395706      10.61156462      19.48481280 
Ag      16.27878670       9.92041532      13.73570751 
Ag      18.14280003       9.88423237      20.44613554 
Au      10.47841087      18.44719762      21.18406792 
Ag      24.09713187      18.35017064      13.35782875 
Ag      24.52469285      20.47987545      16.87069005 
Au      10.13476997      20.59355551      17.68336511 
Au      23.67463019      18.51566576      22.17287604 
Au      10.86953471      18.61402711      12.50217447 
S      19.33148731       9.61139623      14.62110820 
S      15.23959135       9.43925476      19.69442954 
Ag      14.71659444      18.97127754      24.72770187 
Au      20.00401793      19.06288969       9.81763782 
Au      18.34668362      13.49964469       9.95340811 
Au      16.27697486      13.34756424      24.47638348 
Ag      19.34855707      22.04732683      23.36599501 
Au      15.29614627      22.22087329      11.17810958 
S      18.56704440      24.16749456      12.84093795 
S      16.19114710      24.13033924      21.88756501 
S      24.19684985      12.90991949      19.47384382 
S      10.31290131      13.10132942      14.94442644 
Au      12.68851943      13.52530701      11.62341533 
Ag      21.80769343      13.36212228      22.77892290 
S       9.05405970      16.42458891      18.19150246 
S      25.61370528      16.16772991      16.23172655 
S      11.30582346      17.30553103      23.08495507 
S      23.33413336      17.15646438      11.39175314 
S      22.93200207      22.89219333      14.26959924 
S      11.83257300      22.85502349      20.44713330 
S      22.26433546      19.49565817      23.78171247 
S      12.32976190      19.58336413      10.93065523 
S      19.02941169       9.01635122      18.40171422 
S      15.41211894       9.07293887      15.78534657 
S      16.01637618      13.56199944       9.62605651 
S      18.61351417      13.36931862      24.82738144 
S      18.43357497      20.44474120      24.89871091 
S      16.25490768      20.59904728       9.76195660 
S      24.23327633      21.38431651      19.10108374 
S      10.46838686      21.55680994      15.54991004 
S      15.02643675      25.28041174      17.40400229 
S      19.80253843      25.24859238      17.27071011 
S      16.91721676      10.54062334      11.50229565 
S      17.61351329      10.47010240      22.73724112 
S      16.03095650      17.12746192      25.52260393 
S      18.76584183      17.24584961       8.98758173 
S      22.11700582      15.40449970      23.99563154 
S      12.49422538      15.59845867      10.52393445 
S      23.42934238      11.94189854      14.73281703 
S      11.15004082      11.76498510      19.43558736 
S      13.90074136      13.35389288      24.23314060 
S      20.71190879      13.46887297      10.23506924 
S      21.69840912      11.14852106      21.83761779 
S      12.78280417      11.35700858      12.54879060 
S      20.76411164      23.50285639      22.01774679 
S      13.96696882      23.60668845      12.59028962 
S      25.15919662      17.22474949      20.83928777 
S       9.31648985      17.36911884      13.78724656 
S      13.74803689      21.12200462      24.20570336 
S      21.01189443      21.13024595      10.40303793 
S      25.55105344      19.55079350      14.88631354 
S       9.13826817      19.65078068      19.63030412 
C      18.95262744      14.64298965      26.10294892 
C      15.67172632      14.91155227       8.43072048 
C      23.51364485      23.06044479      18.91120835 
C      11.27487147      23.17993227      15.82182418 
C      20.85172270       8.94384767      18.62166618 
C      13.58944576       8.95803191      15.58532162 
C      10.70544344      15.58233165      22.88848214 
C      23.92274780      15.43118393      11.62058474 
C       8.18877553      15.44900069      19.48414436 
C      26.38013327      15.09672744      14.95019988 
C      22.88053633      21.21814782      23.92813805 
C      11.73064999      21.30811160      10.74246383 
C      14.83535532      26.39483423      18.85781297 
C      19.96631637      26.39220130      15.83746970 
C      23.93149962      15.55303507      24.25018444 
C      10.69768744      15.81231766      10.20842999 
C      19.96909817      16.25974413       8.01496681 
C      14.85535657      16.06364251      26.44713695 
C      19.84422377      25.02084286      21.55329268 
C      14.92151323      25.11081546      13.02494789 
C      21.22529055      11.72267818      10.47020748 
C      13.32817573      11.64496502      23.89411573 
C      24.46439477      11.11720847      16.00691169 
C      19.65177214       7.86550231      15.07901471 
C      14.91246987       7.72670055      19.12273331 
C      26.31996996      18.36294110      19.99152743 
C       8.21982919      18.54743285      14.66786757 
C      18.87842686      24.45158878      11.05187300 
C      15.84686036      24.37570504      23.67562691 
C      23.33789964      24.38822271      15.25577641 
C      11.37877039      24.39725484      19.55608687 
C      17.48537746      21.46075593       8.71206420 
C      21.09186004      10.10469005      23.22335474 
C      13.33844392      10.29742150      11.15638144 
C      11.91553314      20.99214296      24.17312807 
C      22.83230167      20.89920163      10.43682315 
C       9.20538429      13.49037535      13.53601071 
C      18.30657762       9.42947413      11.05114743 
C      16.18211644       9.45002636      23.25050865 
C       8.60697752      21.13321379      20.56581941 
C      26.09003498      21.03835161      13.95590287 
C      17.21443949      21.32569349      25.95386365 
H      16.71201899      20.57504569      26.57707091 
H      16.46433371      21.86176541      25.36589942 
H      17.75446948      22.03022467      26.59635772 
C      25.37111503      13.25195504      20.84061363 
H      26.34564669      12.83246308      20.56303186 
H      24.99791300      12.75100697      21.74271981 
H      25.47439511      14.32738953      21.02206464 
C      10.25487165      11.04537964      18.00405981 
H       9.38115983      11.67667586      17.80268310 
H       9.92982615      10.03653514      18.28321213 
H      10.88140316      11.00585098      17.10826499 
H      26.67870511      15.73623663      14.11031345 
H      25.68509406      14.32881069      14.59439249 
H      27.27002609      14.61940837      15.37611416 
H      26.67095840      17.86882888      19.07796081 
H      27.16303729      18.54193387      20.66931780 
H      25.84163939      19.31521192      19.74319947 
H      26.51702615      20.71206675      13.00062667 
H      26.86468906      21.54901078      14.54011346 
H      25.25025824      21.72190839      13.77634957 
H      24.28414762      23.72095057      18.49774606 
H      23.21061774      23.41477338      19.90360488 
H      22.63666581      23.04756798      18.25319981 
H      23.37437053      25.25528534      14.58651061 
H      24.32509619      24.23979803      15.70973776 
H      22.59788070      24.56035806      16.04564034 
H      20.20048373      25.36118553      20.57400176 
H      20.06463629      25.78067186      22.31279549 
H      18.76348819      24.84104768      21.51257109 
H      21.03342119      26.50608147      15.61247337 
H      19.54974584      27.36575473      16.11855249 
H      19.45107279      26.00838704      14.95029596 
H      17.91315632      24.50511967      10.53439113 
H      19.48589884      23.64771279      10.62120677 
H      19.40758558      25.40515566      10.94034266 
H      15.27753534      27.36684874      18.61290222 
H      15.31475811      25.98243731      19.75238840 
H      13.76350006      26.52248178      19.05011198 
H      14.76468599      25.84759401      12.22828950 
H      15.99083350      24.89218214      13.12962542 
H      14.52662373      25.49580194      13.97280190 
H      10.38188677      24.25857240      19.12039778 
H      12.09405132      24.62185277      18.75712321 
H      11.34954286      25.22759345      20.27063294 
H      16.94209042      22.12888038       8.03391991 
H      18.01433620      20.68902155       8.13891055 
H      18.20636508      22.02907721       9.30561237 
H      23.21202413      20.97453365       9.41171510 
H      23.11043315      19.92786780      10.85840247 
H      23.25431521      21.70250421      11.05246719 
H      23.46831414      14.81602923      10.83497371 
H      23.63241869      15.03096383      12.59874126 
H      25.01358967      15.41477009      11.51968931 
H      20.25148850      16.83430247       7.12591928 
H      19.46638308      15.33069480       7.71796541 
H      20.85953481      16.01379969       8.60154011 
H      21.10081859      11.18922269       9.52094634 
H      20.64354095      11.23572003      11.25878503 
H      22.28430668      11.73028952      10.75428559 
H      18.79552577       9.84312646      10.16171042 
H      17.89459984       8.44229097      10.81222236 
H      19.02744637       9.33885058      11.87118288 
H      13.35739963       8.07117491      14.98414344 
H      13.17745686       9.84611911      15.09236585 
H      13.13746334       8.85202233      16.58003787 
H      12.48834481      10.14269468      10.48271648 
H      13.65971878       9.33736543      11.57860198 
H      14.17707035      10.74432511      10.61389992 
H      15.92010124      14.55352312       7.42525025 
H      16.24835603      15.81504387       8.65702589 
H      14.59901208      15.13241094       8.49560483 
H       9.64254025      13.04905719      12.63158202 
H       9.08140656      14.57108151      13.40789951 
H       8.23095392      13.03086768      13.74120971 
H      10.38738877      15.09238548       9.44307513 
H      10.55641074      16.83565246       9.83948646 
H      10.10508944      15.67271863      11.11707116 
H       7.41308514      18.84363962      13.98800628 
H       8.76289240      19.43609874      15.00311738 
H      10.74719540      21.28546985      10.26024072 
H      12.44944018      21.83293827      10.10061042 
H      11.66249716      21.82543828      11.70435976 
H      11.50846861      23.59230200      14.83280155 
H      12.20669404      23.07669678      16.39231895 
H      10.57993431      23.84383465      16.34657585 
H      20.56001470       7.50529192      14.58656469 
H      18.78603310       7.28878918      14.72969275 
H      19.72904464       7.75931345      16.16809631 
H      24.78936097      10.14983738      15.60722632 
H      23.91984386      10.97609876      16.94498883 
H      25.33667523      11.75631235      16.19088396 
H      24.13905683      16.57769417      24.58264713 
H      24.49174238      15.35694190      23.33145728 
H      24.23296361      14.84093819      25.02667575 
H      20.02526794      14.86921801      26.05611982 
H      18.69909035      14.22698342      27.08454319 
H      18.37638800      15.55740674      25.92285912 
H      15.36060712      15.11715806      26.67861159 
H      13.95011598      15.85360048      25.86986191 
H      14.59288818      16.58597463      27.37450543 
H      12.25985884      11.70207199      23.65399658 
H      13.47077421      11.04011236      24.79696091 
H      13.86604534      11.20189123      23.05087409 
H      16.56911263       8.46048846      23.52269076 
H      15.45300651       9.34803185      22.43932341 
H      15.72486185       9.91828731      24.12923539 
H      20.64394946       9.19597096      22.80418142 
H      20.34108077      10.62299842      23.82801171 
H      21.95396976       9.83961321      23.84620659 
H      15.78711506       7.13333608      19.41771815 
H      14.81496423       7.69165114      18.03132485 
H      22.18012448      21.76125289      24.57568810 
H      22.93660347      21.71723353      22.95608334 
H      23.87161369      21.19821003      24.39464807 
H      11.53302353      21.74648526      23.47549802 
H      11.54361258      21.19674551      25.18362597 
H      11.58075751      19.99961580      23.85652314 
H      15.30858361      25.32295658      23.79699626 
H      16.80201101      24.42812611      24.21183918 
H      15.23820487      23.55832217      24.07927746 
H       7.88383377      21.67860723      19.94798938 
H       9.46423874      21.77560954      20.80472158 
H       7.23029974      15.11009636      19.07358553 
H       8.00786484      16.10931872      20.34153042 
H       8.78105167      14.58500933      19.80167194 
H       9.61550595      15.57187886      22.99715740 
H      11.16716591      14.98532172      23.68411386 
H      10.99672003      15.17202953      21.91473463 
H      21.32502890       8.93148221      17.63144465 
H      21.08870120       8.01461598      19.15377549 
H      21.22687535       9.79631882      19.19958186 
H      14.01709811       7.32862868      19.60998270 
H       8.11965285      20.79060730      21.48589008 
H       7.80602938      18.02482572      15.53838489 
