322
Properties=species:S:1:pos:R:3 i=263 optimized=T E=-4244.7396233941 pbc="F F F" jobid=102_44-Ag-19_6-000006-PBE
Au      16.88660978      17.07731555      15.86096359 
Au      17.69239111      17.05441120      18.75414073 
Au      18.68408497      15.00009458      16.92937256 
Au      15.92614334      15.01271186      17.69662685 
Au      19.55348629      17.79857458      16.65104213 
Au      15.00844031      17.80436260      17.97461239 
Au      17.26221506      19.58433145      17.31991060 
Au      17.87945201      15.10776118      13.88703293 
Ag      16.67143197      15.02845172      20.62413542 
Au      18.26664377      19.56888513      20.19765205 
Au      16.33703172      19.62779282      14.41133201 
Ag      19.44553337      14.96288012      19.81205739 
Au      15.09306505      15.02053637      14.72516037 
Au      18.68397041      17.94135811      13.63043763 
Au      15.90617578      17.89897314      20.97680384 
Au      20.45937291      17.71247265      19.51330049 
Au      14.13459704      17.79896318      15.07638737 
Ag      21.42987595      15.71365993      17.62112621 
Au      13.12758270      15.76668911      16.89185271 
Au      13.93791217      15.78115728      19.85619543 
Ag      20.56896288      15.81813140      14.73027151 
Au      15.43627707      20.33488112      19.47897273 
Au      19.10028241      20.36953989      15.18286872 
Au      20.08938582      20.41847253      18.02676155 
Ag      14.51499625      20.42919229      16.63765895 
Au      17.69825750      12.76900202      18.74668115 
Au      16.85892863      12.80916585      15.76917247 
Au      16.02673245      17.14203307      12.85603179 
Au      18.55377190      17.00296239      21.69321501 
Au      19.66886488      13.06591370      15.08770434 
Au      14.86945507      13.00514534      19.44609886 
Au      13.13973504      18.53578296      20.09564144 
Au      21.39899040      18.55525671      14.54269698 
Ag      20.48964909      12.96321316      17.87010842 
Au      14.11019043      13.01589028      16.65096112 
Au      22.24790663      18.57520862      17.30755110 
Au      12.33811954      18.64988232      17.31807875 
Au      17.77830394      22.13629324      18.68717473 
Au      16.77687460      22.16934005      16.02550417 
Au      20.46044226      19.29301303      22.01036861 
Au      14.14830242      19.41031010      12.58291397 
Ag      18.80571233      14.26521566      22.56311076 
Ag      15.66188216      14.36356463      12.00995425 
Ag      17.34168972      19.42601415      11.57327929 
Au      17.31408905      19.30985643      23.03750307 
Ag      18.26354158      16.20611169      11.25224493 
Au      16.33271917      16.09142198      23.29642072 
Au      21.34224425      16.29972219      21.80539404 
Au      13.22199210      16.42747997      12.75222605 
Au      23.23151071      16.54527110      15.50081648 
Au      11.29297499      16.53542087      19.02510089 
Au      22.39834555      13.76628038      15.80081167 
Au      12.12551197      13.75099598      18.59314960 
Au      14.95843045      22.82338993      18.29969863 
Au      19.62503903      22.84171867      16.44991524 
Au      17.79444172      12.44593976      12.96668194 
Au      16.76595780      12.32566408      21.50363519 
Ag      20.15324639      14.21901013      12.44949187 
Au      14.34501619      14.18322101      22.07585889 
Au      21.84995711      21.11386173      15.84291828 
Au      12.69913827      21.10872780      18.84934050 
Ag      13.67032140      17.10211333      22.54253799 
Ag      20.90460763      17.22493252      12.06903673 
Au      22.32179897      19.93097087      19.86062302 
Au      12.31975794      20.01226413      14.78109495 
Au      20.05267454      21.83865686      20.45700599 
Au      14.58196749      21.88440449      14.20430653 
Ag      15.74478327      10.78636756      17.57845461 
Au      18.73812184      10.86755381      16.87378037 
Au      22.10655463      14.14173234      19.98299068 
Ag      12.40136009      14.18697531      14.50292105 
Au      17.04341373      21.77701273      21.46926716 
Au      17.54936685      21.86523473      13.21691587 
Au      19.73637945      12.18894079      20.58926337 
Au      14.77540483      12.21635282      13.94466243 
Au      23.22067515      16.87880008      19.46742235 
Au      11.34694791      16.97206819      15.09571648 
Ag      20.08416038      20.33489424      12.58166184 
Au      14.46439675      20.18876046      22.10043207 
Au      20.69139522      23.29803108      13.53706547 
Au      13.94509781      23.25600187      21.18782136 
Au      24.71224915      14.51511091      17.79930396 
Ag       9.99420623      14.68781943      16.62414485 
Au      17.26757441      24.98746746      17.34579963 
Ag      21.58849479      10.88533704      14.80329245 
Ag      12.90198462      10.87241303      19.62631258 
Au      16.30488480       9.68714089      13.84321280 
Au      18.21623296       9.63567524      20.57173195 
Au      10.39835242      18.37065454      21.19153238 
Au      24.14588446      18.38682528      13.36715170 
Au      24.52311930      20.42052044      16.94281928 
Au      10.06772596      20.49183072      17.67408699 
Au      23.75308552      18.46965578      22.15054882 
Au      10.84013313      18.61415117      12.43234315 
S      19.55464997       9.62740645      14.79573003 
S      14.88873159       9.54759706      19.66986591 
Au      14.72300638      18.75164636      24.92018256 
Au      19.88273093      18.99720006       9.77520832 
Au      18.46973820      13.45207361      10.00335840 
Au      16.22033290      13.17559021      24.46791211 
Ag      19.30070923      21.95058292      23.40236207 
Au      15.33293940      22.18678855      11.17418528 
S      18.59705894      24.03604117      12.75267212 
S      16.04784111      23.94158883      22.01318253 
S      24.13286646      12.88056699      19.40029179 
S      10.32291633      12.93312450      14.99180475 
Au      12.71018952      13.38945939      11.61764159 
Au      21.85539072      13.24568405      22.86410112 
S       9.00814709      16.20469516      18.24933766 
S      25.53887387      16.07058972      16.23569873 
S      11.21278462      17.20258716      23.08289458 
S      23.33350632      17.25293423      11.44963615 
S      22.86339699      22.70747705      14.23043152 
S      11.75895659      22.74870501      20.47194156 
S      22.24942221      19.41621552      23.70425414 
S      12.35087210      19.56770437      10.89305580 
S      18.98398404       8.90814509      18.48893848 
S      15.50803293       8.85035543      15.87261123 
S      16.12658278      13.42561751       9.73017070 
S      18.55326661      13.14942578      24.81479544 
S      18.47221083      20.28382599      24.95133935 
S      16.17418243      20.57995897       9.67471688 
S      24.21105044      21.33015791      19.11908645 
S      10.44238412      21.42777955      15.51542797 
S      14.92117485      25.15020126      17.54169448 
S      19.61365107      25.16973606      17.17553472 
S      17.07391417      10.45600639      11.74146426 
S      17.48614422      10.28559590      22.71940976 
S      15.94409886      16.87647403      25.62925046 
S      18.62662164      17.18471529       8.96258366 
S      22.09266754      15.31736232      23.94500019 
S      12.47220216      15.49365238      10.60002191 
S      23.70333255      12.03003259      14.63146914 
S      10.80571860      12.06865937      19.75963875 
S      13.84570189      13.19327302      24.23813696 
S      20.84425000      13.47458993      10.18281237 
S      21.63210371      11.14458179      21.82876229 
S      12.92180311      11.26470568      12.59824451 
S      20.68298763      23.49960165      22.10002144 
S      14.00718070      23.60927611      12.56261710 
S      25.23373463      17.14607866      20.85368423 
S       9.35121589      17.29757185      13.72625675 
S      13.75985413      20.83639522      24.34805182 
S      20.89789012      21.05433122      10.33681171 
S      25.51264708      19.50329433      14.97424544 
S       9.04978120      19.56245705      19.62113091 
C      18.91916493      14.41070253      26.09535613 
C      15.70681789      14.69862356       8.47822445 
C      23.45806363      22.98402172      18.88781272 
C      11.20229015      23.07092735      15.79305079 
C      20.80045679       8.76577664      18.70231212 
C      13.69766496       8.68456018      15.62009739 
C      10.61533053      15.48228639      22.86306626 
C      23.91439194      15.52595071      11.65959581 
C       8.19509816      15.14760163      19.50833803 
C      26.31567714      15.06728171      14.91252852 
C      22.80960847      21.15182326      23.89005740 
C      11.80729570      21.30993776      10.72654115 
C      14.69660297      26.26467148      18.98579628 
C      19.86908580      26.28637079      15.73972012 
C      23.89958262      15.51934523      24.19580298 
C      10.66466712      15.69937951      10.35851884 
C      19.80697248      16.21059892       7.94929881 
C      14.72986090      15.83337497      26.52244445 
C      19.71123400      24.99422345      21.66453745 
C      14.98102396      25.08683746      13.04075936 
C      21.39084848      11.73861809      10.43107052 
C      13.29553228      11.48846927      23.84496185 
C      24.79585716      11.24255367      15.88227341 
C      19.96820532       7.89417137      15.25218679 
C      14.39714663       7.84443950      19.16955361 
C      26.38348113      18.24887014      19.94889625 
C       8.22272096      18.40254503      14.65601230 
C      18.80430823      24.25646257      10.94533532 
C      15.80597842      24.09562800      23.82419344 
C      23.46782122      24.14446801      15.19767851 
C      11.19634712      24.21380945      19.52326924 
C      17.35638243      21.42504229       8.55642871 
C      21.00510572      10.04691757      23.15619441 
C      13.57842692      10.20799946      11.25110937 
C      11.93464746      20.68941519      24.42551869 
C      22.71970264      20.84706782      10.30107657 
C       9.13073204      13.28824796      13.64046859 
C      18.50860636       9.41092794      11.29409718 
C      16.08086505       9.18632207      23.12836119 
C       8.49733310      21.04128205      20.55056573 
C      26.11702823      20.98273240      14.07867885 
C      17.27800951      21.10245233      26.07803325 
H      16.75479759      20.32036881      26.64220073 
H      16.54414070      21.70413864      25.53550851 
H      17.84723442      21.73972094      26.76515385 
C      25.33205216      13.12212083      20.76700292 
H      26.29195102      12.68742308      20.46427607 
H      24.93911197      12.59106314      21.64299564 
H      25.46095785      14.18552436      20.99614389 
C       9.72606043      11.29215701      18.48965800 
H       8.88540319      11.96779301      18.29004144 
H       9.35127573      10.34663769      18.89839193 
H      10.26120335      11.11179664      17.55280976 
H      26.55012233      15.74772745      14.08430901 
H      25.64184447      14.27541534      14.56485882 
H      27.24135506      14.63048554      15.30453374 
H      26.79550616      17.67878267      19.10783152 
H      27.18636709      18.54047405      20.63588270 
H      25.87505170      19.14157586      19.57262536 
H      26.63514971      20.63798563      13.17619681 
H      26.82401594      21.50881872      14.73069797 
H      25.28738970      21.64462267      13.80404250 
H      24.20994814      23.64771191      18.44641928 
H      23.16447313      23.35235817      19.87831571 
H      22.57102575      22.92619310      18.24576749 
H      23.64864454      24.98042833      14.51226090 
H      24.40972948      23.84738104      15.67564625 
H      22.74406752      24.43512843      15.96595700 
H      20.11476990      25.41449601      20.73614959 
H      19.83180061      25.71657089      22.48076970 
H      18.64961701      24.76108626      21.52955997 
H      20.93183070      26.25185290      15.47204341 
H      19.59688066      27.30213651      16.04865338 
H      19.26880059      25.97709852      14.87891191 
H      17.80256714      24.28077074      10.49817739 
H      19.39108008      23.43815380      10.51411796 
H      19.31513331      25.21105708      10.77293980 
H      14.96912119      27.28013955      18.67634430 
H      15.31097571      25.94873162      19.83412007 
H      13.63902231      26.23541012      19.27337171 
H      14.94116596      25.80210189      12.21079719 
H      16.02164962      24.82865133      13.26399537 
H      14.51127243      25.52286583      13.93034491 
H      10.23396519      23.95821873      19.06242560 
H      11.91646895      24.47704015      18.74161685 
H      11.06283971      25.05430162      20.21400924 
H      16.80540068      22.14139158       7.93698972 
H      17.80219019      20.64889041       7.92197202 
H      18.15227328      21.93494953       9.10570628 
H      23.05407039      20.84487795       9.25778141 
H      23.03720244      19.92205176      10.79212312 
H      23.15079508      21.70533859      10.83013985 
H      23.43734873      14.92738449      10.87397525 
H      23.63088911      15.12670053      12.64059542 
H      25.00316783      15.50023731      11.54173990 
H      20.06074822      16.79319293       7.05692593 
H      19.29931814      15.28133058       7.66153675 
H      20.71398210      15.96055394       8.50734466 
H      21.23054456      11.17333668       9.50613334 
H      20.85828974      11.26325015      11.26058705 
H      22.46263191      11.76662494      10.66163319 
H      18.98193506       9.85859054      10.41254923 
H      18.13074907       8.41304756      11.04224061 
H      19.21985829       9.34596302      12.12489521 
H      13.50845225       7.87580291      14.90536932 
H      13.25847203       9.61697612      15.24954640 
H      13.24797876       8.42811342      16.58641000 
H      12.73859172       9.94931889      10.59592667 
H      13.99369922       9.30320283      11.71197874 
H      14.36244800      10.71608644      10.68118822 
H      15.98765159      14.31997833       7.48898086 
H      16.21949277      15.64673635       8.67453771 
H      14.62171244      14.85285101       8.52336312 
H       9.49464837      12.80042939      12.72789633 
H       9.02811244      14.36519558      13.46730884 
H       8.15536197      12.87053164      13.91611963 
H      10.35552182      15.02915337       9.54817619 
H      10.48842196      16.74430214      10.07442985 
H      10.10525747      15.46970990      11.26965430 
H       7.40220706      18.68440310      13.98584412 
H       8.73654028      19.30082547      15.01063958 
H      10.83702817      21.31582224      10.21683707 
H      12.55700253      21.83079281      10.11742067 
H      11.72159983      21.80106283      11.70041726 
H      11.51499750      23.45714640      14.81548876 
H      12.07653378      22.99545800      16.45073206 
H      10.44631108      23.73035067      16.23396771 
H      19.80384269       7.27606748      14.36107024 
H      19.29359799       7.56707602      16.05299856 
H      21.00732887       7.78747866      15.57562038 
H      25.18818268      10.31351246      15.45258336 
H      24.26251244      11.02884429      16.81308939 
H      25.62170143      11.93076872      16.10104236 
H      24.07237781      16.55180478      24.52390706 
H      24.45971491      15.33269317      23.27534829 
H      24.21339096      14.81697777      24.97652356 
H      19.99919068      14.60041165      26.06477359 
H      18.63966385      14.00747125      27.07522651 
H      18.37967974      15.34534039      25.90799726 
H      15.22477013      14.88326972      26.76117620 
H      13.84147295      15.63348698      25.91628293 
H      14.44720129      16.35525640      27.44366101 
H      12.23445105      11.54156561      23.57356149 
H      13.41753243      10.86483486      24.73804946 
H      13.86360709      11.07002344      23.00853549 
H      16.48278173       8.18416491      23.31813393 
H      15.35906640       9.15227956      22.30402605 
H      15.61281827       9.57389590      24.04051987 
H      20.58131381       9.15473420      22.67909509 
H      20.23186054      10.53841215      23.75515141 
H      21.85665732       9.77116121      23.78894678 
H      14.48493352       7.19807162      20.05117325 
H      15.08062525       7.49310073      18.38713325 
H      22.08013476      21.67123129      24.52460515 
H      22.88289986      21.65879480      22.92333961 
H      23.78893968      21.14123659      24.38209149 
H      11.51291639      21.49799207      23.81704211 
H      11.63139924      20.81004754      25.47206713 
H      11.58808394      19.72218653      24.04920965 
H      15.25176900      25.02186018      24.01700507 
H      16.79678404      24.15339154      24.29178541 
H      15.24800106      23.24086555      24.22160794 
H       7.80110755      21.60225505      19.91628003 
H       9.34805275      21.67270936      20.83330919 
H       7.25899090      14.76781181      19.08204709 
H       7.97285289      15.76998253      20.38398811 
H       8.83711217      14.30958228      19.80444301 
H       9.52396635      15.46799002      22.95590252 
H      11.06636932      14.87869203      23.65990113 
H      10.91936723      15.07939883      21.89008632 
H      21.24993342       8.64043195      17.71028573 
H      21.00857130       7.88109513      19.31533210 
H      21.21654678       9.65651288      19.18526574 
H      13.36778761       7.80505429      18.80200588 
H       7.97582390      20.69268173      21.44969603 
H       7.83431097      17.83821142      15.51212206 
