322
Properties=species:S:1:pos:R:3 i=201 optimized=T E=-4516.7617899488 pbc="F F F" jobid=102_44-Ag-90_2-000002-PBE
Au      16.84375583      16.97483338      15.93062415 
Ag      17.66849904      16.95059107      18.71572962 
Ag      18.61773618      14.89813698      16.87785834 
Ag      15.85492064      14.90229923      17.67501487 
Ag      19.52389623      17.70412596      16.63402354 
Ag      14.98893544      17.71519628      18.00918187 
Ag      17.26381567      19.45886477      17.33438317 
Ag      17.80976112      14.98109085      13.98282434 
Au      16.65649741      14.93934449      20.59904287 
Ag      18.19908558      19.45301051      20.17553108 
Au      16.31368238      19.51624463      14.47251818 
Ag      19.44490363      14.88103191      19.78349465 
Ag      15.02223241      14.94105700      14.77892360 
Ag      18.63968707      17.82041914      13.72601390 
Ag      15.87567601      17.77738802      20.89787769 
Ag      20.40905202      17.66937594      19.47946583 
Ag      14.10474087      17.73461489      15.16446621 
Ag      21.34164526      15.64394734      17.60791513 
Ag      13.12223879      15.67627850      16.95460227 
Ag      13.96550571      15.69681096      19.81391621 
Ag      20.52633205      15.70459848      14.75075281 
Ag      15.45509075      20.26031588      19.45091397 
Ag      19.09836196      20.26859095      15.22897743 
Ag      20.00890357      20.25157581      18.01756565 
Ag      14.51265957      20.29572390      16.65549293 
Au      17.63669198      12.76607884      18.72586048 
Au      16.81894324      12.77446814      15.77765536 
Au      15.96130084      17.01935165      13.00545807 
Ag      18.52634768      16.96633189      21.57787771 
Ag      19.61780872      12.94941221      15.07030307 
Ag      14.82969036      12.93334367      19.42732054 
Ag      13.16305322      18.46101259      20.06774130 
Ag      21.34964284      18.46736264      14.56097903 
Ag      20.40396245      12.90691927      17.85037071 
Ag      14.04232716      12.94139868      16.65514612 
Ag      22.17243866      18.48894700      17.28941362 
Ag      12.34293433      18.53566883      17.34690686 
Ag      17.75270087      21.94499245      18.68216665 
Ag      16.80566321      21.98599755      16.02809568 
Ag      20.44908034      19.13472122      21.99098909 
Ag      14.07730540      19.24704972      12.65213105 
Ag      18.72880634      14.24054463      22.52333052 
Ag      15.69370871      14.35128189      11.99921029 
Ag      17.21133561      19.28324715      11.65973586 
Ag      17.32389310      19.20334411      22.95896986 
Ag      18.15704212      16.16585533      11.32038956 
Ag      16.30593682      16.06726691      23.24040101 
Au      21.27538781      16.15023516      21.72598120 
Ag      13.17572780      16.30856661      12.85584532 
Ag      23.17292838      16.43090016      15.56253894 
Ag      11.32728597      16.45587379      19.04549768 
Ag      22.33952436      13.66434742      15.82391162 
Ag      12.12091680      13.68963182      18.73015128 
Ag      14.98885551      22.74019767      18.15354335 
Ag      19.58491093      22.74271139      16.53426145 
Ag      17.68669034      12.33679493      12.99651569 
Ag      16.75539350      12.24460770      21.48471876 
Ag      20.02902139      14.16877261      12.45055846 
Ag      14.42472441      14.08609224      22.09429424 
Ag      21.79214137      20.99544002      15.86023943 
Ag      12.75683541      21.02472706      18.83301956 
Ag      13.63306833      16.97932278      22.44151621 
Ag      20.83226509      17.04814360      12.14628672 
Ag      22.26260374      19.82358385      19.80305893 
Ag      12.25788627      19.89344994      14.84720912 
Ag      19.97905871      21.63922168      20.48177742 
Ag      14.55279309      21.72374275      14.20078336 
Ag      15.74500777      10.77636824      17.56619314 
Ag      18.68008096      10.76642066      16.94287374 
Ag      22.11542998      14.03848678      19.91018436 
Ag      12.34256435      14.13091011      14.60763562 
Ag      17.02077184      21.67688544      21.46528898 
Au      17.53397397      21.70975717      13.26483473 
Ag      19.68562492      12.08904415      20.57210610 
Ag      14.78569308      12.19678730      13.90521163 
Ag      23.14076274      16.81631688      19.44556722 
Ag      11.36118084      16.91413787      15.14292404 
Ag      20.01169512      20.12040103      12.58138985 
Ag      14.54746146      20.02774550      22.07996239 
Au      20.62394201      23.19016409      13.68556848 
Ag      14.09670098      22.91071220      21.03869079 
Ag      24.49241185      14.53654937      17.81882505 
Ag       9.99056397      14.62425549      16.75765804 
Ag      17.27923883      24.69919587      17.40521469 
Ag      21.59396105      10.85555374      14.78314933 
Ag      12.83593972      10.86711690      19.75934430 
Ag      16.46483734       9.75722919      13.85536890 
Ag      17.97544628       9.67442009      20.61765979 
Ag      10.48532396      18.22105749      21.28848827 
Ag      24.03693342      18.25337603      13.38392136 
Ag      24.45287181      20.32059363      16.97183009 
Ag      10.07968899      20.35206769      17.74957671 
Ag      23.64576046      18.28430270      22.02161553 
Ag      10.82940815      18.41926391      12.59575062 
S      19.52824463       9.64720350      14.79293000 
S      14.88076328       9.62539761      19.69627835 
Ag      14.73180874      18.73052364      24.73910378 
Ag      19.75530563      18.78882206       9.87308003 
Ag      18.28373375      13.22729819      10.15503476 
Ag      16.22631626      13.07657506      24.33984886 
Ag      19.31307059      21.86045001      23.40983710 
Ag      15.27034109      21.98581609      11.28978383 
S      18.53477755      23.90180515      12.84456796 
S      16.12063636      23.94963386      21.88543369 
S      24.10921597      12.70001819      19.34958780 
S      10.36812228      12.77710243      15.24744971 
Au      12.64344207      13.36663043      11.74697122 
Ag      21.66185115      13.21532254      22.77616285 
S       8.98260196      16.19698677      18.29137261 
S      25.51903284      16.08986626      16.27280899 
S      11.28512344      17.07402038      23.26073633 
S      23.21305397      17.13740784      11.40764683 
S      22.82612070      22.75489127      14.38807141 
S      11.76314940      22.67007134      20.41986322 
S      22.27165501      19.32877582      23.69145519 
S      12.25655910      19.45202074      10.96712889 
S      18.82387534       8.80003767      18.57033303 
S      15.59049450       8.86135235      15.88553170 
S      15.90255300      13.28692232       9.75495032 
S      18.61608430      13.16533581      24.76282720 
S      18.41149814      20.24622233      24.94426059 
S      16.08173784      20.35404593       9.71504183 
S      24.23125954      21.23741391      19.20030615 
S      10.31260885      21.30247951      15.53449022 
S      14.89567785      25.11432793      17.45149250 
S      19.66600769      25.07739642      17.36935389 
S      17.09024655      10.34686275      11.59435009 
S      17.34366315      10.25641944      22.87937903 
S      15.97297059      16.86288537      25.58256016 
S      18.47627388      16.97641096       8.96881782 
S      22.06134718      15.30620490      23.91088042 
S      12.33968302      15.43055483      10.65678756 
S      23.69874463      11.99434814      14.56842334 
S      10.75228521      12.03882073      20.00284353 
S      13.78393342      13.13398699      24.26691891 
S      20.71782915      13.26285858      10.26376263 
S      21.58157349      11.02503481      21.79521249 
S      12.85272328      11.19974012      12.65762343 
S      20.71438365      23.34994547      22.10490447 
S      13.87773554      23.48423956      12.60985122 
S      25.23034843      16.95233053      20.76103889 
S       9.25696219      17.06866947      13.84446410 
S      13.75841847      20.89737089      24.26319451 
S      20.77612812      20.92251226      10.35942188 
S      25.45291790      19.43489942      14.94953519 
S       9.06441185      19.43310085      19.75125605 
C      18.96052099      14.46385863      26.01502210 
C      15.51538801      14.58804000       8.51874402 
C      23.52902104      22.92725266      19.04061835 
C      11.02702902      22.98275215      15.73826934 
C      20.61887457       8.52632233      18.85352029 
C      13.79313484       8.62841105      15.58202046 
C      10.65276393      15.35445618      23.11291373 
C      23.82407915      15.40902650      11.53329039 
C       8.12495134      15.17850572      19.55779739 
C      26.32981826      15.05714112      14.98754013 
C      22.91936983      21.04201043      23.83479352 
C      11.66044366      21.18640400      10.84727752 
C      14.71195032      26.22066775      18.91235492 
C      19.86479558      26.25298820      15.96588915 
C      23.88474451      15.43577287      24.08705012 
C      10.52616492      15.59743117      10.42085435 
C      19.69327579      15.95672067       8.04307179 
C      14.72481327      15.83222547      26.45265349 
C      19.78648675      24.87804750      21.68258208 
C      14.84533972      24.96608463      13.10521286 
C      21.34083839      11.57643181      10.64577972 
C      13.13431556      11.46517657      23.85506507 
C      24.82734234      11.18500026      15.77691808 
C      19.95753825       7.90715639      15.22485785 
C      14.41321766       7.90925918      19.21183778 
C      26.38258934      18.07458881      19.87082092 
C       8.11854191      18.18432250      14.76188113 
C      18.81479692      24.14039042      11.04838629 
C      15.80530550      24.18980903      23.67969019 
C      23.30493884      24.21460083      15.39377331 
C      11.33069237      24.20693269      19.50892677 
C      17.29497497      21.18486217       8.61423410 
C      20.93463828       9.97665331      23.16077591 
C      13.48666560      10.21251790      11.24419949 
C      11.92595121      20.75356646      24.28916041 
C      22.60455809      20.75310310      10.29412978 
C       9.12130084      12.99492834      13.91408647 
C      18.52642436       9.26058082      11.23863626 
C      15.91347883       9.15871184      23.22436836 
C       8.54456297      20.92668488      20.68377858 
C      26.01067423      20.93245337      14.04420917 
C      17.19807967      21.10895794      26.02058078 
H      16.70618541      20.34810964      26.63979177 
H      16.43861006      21.64752241      25.44681289 
H      17.74141896      21.80880022      26.66539121 
C      25.34255707      12.93500195      20.69176302 
H      26.29169817      12.48845080      20.37336166 
H      24.97338048      12.41538802      21.58435186 
H      25.49513296      13.99784752      20.91173603 
C       9.59958072      11.24916205      18.80386824 
H       8.69901531      11.87271035      18.74714529 
H       9.33032102      10.25505278      19.17709294 
H      10.03475049      11.17169978      17.80255568 
H      26.62532249      15.71792516      14.16318712 
H      25.65591155      14.27881705      14.61051755 
H      27.22469047      14.59560811      15.42011956 
H      26.62985680      17.62835366      18.90062359 
H      27.29017957      18.16892491      20.47831199 
H      25.94619976      19.06709993      19.72091256 
H      26.48855262      20.61237607      13.11107334 
H      26.74825478      21.45548153      14.66423066 
H      25.17239751      21.60258996      13.82008437 
H      24.29651402      23.59049262      18.62677890 
H      23.24263985      23.27171298      20.04157825 
H      22.64128065      22.93481675      18.39719738 
H      23.39601920      25.08679474      14.73696741 
H      24.27959567      23.99439418      15.84638591 
H      22.57142333      24.41196023      16.18331665 
H      20.15500488      25.25595155      20.72186594 
H      19.98165204      25.61688285      22.46851287 
H      18.70827758      24.69170683      21.61252280 
H      20.93573733      26.35070183      15.75245745 
H      19.46323808      27.22742598      16.26500161 
H      19.35306993      25.89862593      15.06551464 
H      17.83232682      24.21122511      10.56522091 
H      19.38894571      23.30736230      10.62627391 
H      19.36338206      25.07965991      10.91120940 
H      15.14709696      27.19622755      18.66943300 
H      15.19959880      25.80506591      19.80099525 
H      13.64072444      26.34142067      19.11237344 
H      14.73851836      25.71972977      12.31640085 
H      15.90591442      24.73217911      13.24700971 
H      14.43143232      25.35473454      14.04296785 
H      10.33387383      24.07461015      19.07133080 
H      12.05182883      24.41541365      18.71068825 
H      11.30754732      25.04400129      20.21584331 
H      16.75788713      21.90036246       7.98138221 
H      17.75252287      20.41090836       7.98494374 
H      18.08168874      21.70050309       9.17214443 
H      22.92977791      21.00153647       9.27715077 
H      22.92986052      19.73634899      10.53658541 
H      23.04443059      21.46220688      11.00452449 
H      23.30557920      14.81269002      10.77285948 
H      23.61980227      14.98052354      12.52139587 
H      24.90281455      15.40436569      11.34189365 
H      19.99584823      16.51047831       7.14729350 
H      19.20002627      15.02196740       7.74778039 
H      20.57413726      15.71661152       8.64589008 
H      21.25319529      10.95278481       9.74889442 
H      20.78877636      11.11635553      11.47131291 
H      22.39669165      11.66390137      10.92746544 
H      19.02172131       9.63159279      10.33419829 
H      18.15179096       8.24678996      11.05646352 
H      19.23177744       9.24862668      12.07715583 
H      13.66091198       7.76925487      14.91420976 
H      13.33747372       9.51460264      15.12616314 
H      13.30147130       8.41852366      16.53896650 
H      12.64270786       9.98154204      10.58466135 
H      13.91141643       9.28586570      11.64857700 
H      14.26234961      10.75096492      10.68969031 
H      15.68473990      14.16571282       7.52149717 
H      16.14329474      15.47658979       8.65286381 
H      14.45918453      14.86158797       8.62951759 
H       9.49365119      12.48428628      13.01790480 
H       8.95416438      14.05571208      13.69528127 
H       8.18070634      12.53537386      14.23883717 
H      10.20090798      14.86056441       9.67826573 
H      10.34447412      16.61136837      10.04194589 
H       9.97554589      15.45561678      11.35543401 
H       7.21029903      18.30163624      14.15936747 
H       8.56559783      19.16842374      14.93469970 
H      10.67336820      21.18053303      10.37169903 
H      12.36693807      21.74326854      10.21896156 
H      11.59352550      21.66917561      11.82716447 
H      11.30443169      23.35730623      14.74569592 
H      11.92096894      22.96573012      16.37320824 
H      10.26772031      23.63637321      16.18151525 
H      20.99429048       7.81934065      15.56225913 
H      19.81647590       7.29385672      14.32732175 
H      19.28022458       7.56965084      16.01914946 
H      25.09851637      10.19504676      15.39404403 
H      24.37425053      11.09423076      16.76895167 
H      25.72951365      11.80344554      15.85873611 
H      24.12183724      16.46053617      24.40079074 
H      24.40660785      15.21196619      23.15206890 
H      24.19899945      14.72915207      24.86402415 
H      20.01044132      14.76515023      25.91950031 
H      18.79007871      14.02591459      27.00532308 
H      18.31237213      15.33802425      25.88374597 
H      15.20064138      14.88497162      26.73562606 
H      13.85667074      15.61856314      25.82184455 
H      14.40582356      16.36720474      27.35384603 
H      12.07754512      11.57314109      23.58420373 
H      13.22054206      10.82290557      24.73890146 
H      13.67314756      11.01428190      23.01591162 
H      16.29485038       8.14445516      23.38889463 
H      15.20542462       9.15623650      22.38807775 
H      15.42039303       9.51293132      24.13653905 
H      20.48241610       9.07828714      22.72412123 
H      20.18061058      10.49942589      23.75797945 
H      21.78282038       9.69524619      23.79531681 
H      14.49457287       7.27286878      20.10063029 
H      15.11270130       7.56611751      18.43964197 
H      22.23831204      21.60985288      24.48106234 
H      22.98921452      21.54026436      22.86287351 
H      23.91149659      20.99943118      24.29786261 
H      11.51188348      21.46562121      23.56601150 
H      11.58345059      21.01014601      25.29837687 
H      11.59252469      19.74032627      24.04305198 
H      15.25599336      25.12922292      23.81167086 
H      16.76996352      24.25551353      24.19727604 
H      15.21685784      23.36248452      24.09309349 
H       7.78521325      21.45288238      20.09328461 
H       9.39599962      21.59264287      20.87365886 
H       7.22332095      14.74527550      19.11012014 
H       7.83734597      15.84276149      20.38229715 
H       8.77152436      14.37932077      19.93853381 
H       9.57555085      15.36028736      23.31279083 
H      11.16900802      14.74007201      23.86023335 
H      10.84357157      14.93844610      22.11696953 
H      21.10988715       8.39384276      17.88243216 
H      20.74112590       7.61207237      19.44596205 
H      21.08080922       9.36659428      19.38457506 
H      13.39001231       7.86269303      18.82796230 
H       8.10240792      20.60617045      21.63409653 
H       7.87013742      17.71750194      15.72213455 
