322
Properties=species:S:1:pos:R:3 i=205 optimized=T E=-4437.4672260615 pbc="F F F" jobid=102_44-Ag-69_6-000002-PBE
Ag      16.84280185      17.04589502      15.87709900 
Ag      17.67280495      17.00292963      18.68529543 
Ag      18.60515396      14.96295837      16.85469823 
Ag      15.89055430      14.97847842      17.66801247 
Ag      19.52785064      17.75905052      16.59535191 
Ag      14.99291447      17.75160459      17.96410670 
Ag      17.27512063      19.50522419      17.31757134 
Ag      17.80731906      15.04582633      13.98817593 
Ag      16.65119324      14.97531803      20.57863446 
Au      18.21884469      19.52626958      20.16357090 
Ag      16.32272079      19.55571210      14.45615836 
Ag      19.43566543      14.95578394      19.80487659 
Ag      15.04533131      15.05263491      14.71860601 
Au      18.65277854      17.86246204      13.68904027 
Ag      15.89101745      17.81738509      20.88458462 
Ag      20.37975149      17.71056560      19.44814598 
Ag      14.09473639      17.81651619      15.15434341 
Ag      21.35260464      15.73242404      17.62911499 
Ag      13.13714673      15.78219753      16.92310956 
Ag      13.95779817      15.71567929      19.80263406 
Ag      20.55173934      15.75474353      14.76140179 
Au      15.44151385      20.26639662      19.43110230 
Ag      19.09118358      20.29569375      15.18835264 
Ag      20.03280488      20.30835315      17.99550874 
Ag      14.49882874      20.34009621      16.66308644 
Au      17.62798669      12.79467854      18.78113534 
Ag      16.85336746      12.81223373      15.75095967 
Ag      15.96275202      17.10920946      12.97954307 
Ag      18.52990035      17.00715062      21.58352576 
Ag      19.64745799      12.96866901      15.05991528 
Ag      14.82241118      12.98057952      19.39697691 
Ag      13.19210149      18.47514900      20.05811317 
Ag      21.40864161      18.51805663      14.57366971 
Au      20.35691373      12.97747588      17.87033219 
Au      14.08364192      13.05222796      16.60832311 
Ag      22.21575454      18.56605575      17.28790586 
Ag      12.29572925      18.60981386      17.33968347 
Ag      17.76556393      22.05066585      18.64128890 
Au      16.79996334      22.02302656      15.98600670 
Au      20.43073198      19.21031748      21.95447637 
Au      14.03636441      19.31192472      12.69860544 
Ag      18.71530235      14.28157534      22.50983903 
Ag      15.74454352      14.41981676      11.97766011 
Au      17.25103698      19.34169758      11.65790967 
Ag      17.31991659      19.29747692      22.95787901 
Ag      18.21073080      16.23902014      11.30105285 
Au      16.31530471      16.11893825      23.20045103 
Ag      21.30492832      16.24897325      21.76358577 
Ag      13.15514205      16.41503658      12.84131305 
Ag      23.22228671      16.42998035      15.60589571 
Au      11.35905886      16.50825377      19.05844635 
Au      22.31765702      13.72203668      15.89826085 
Ag      12.07716224      13.72361966      18.60943890 
Ag      14.97869586      22.75176288      18.20910373 
Ag      19.59230364      22.76533515      16.49801528 
Ag      17.70271680      12.41797877      12.96310672 
Ag      16.76474161      12.22548836      21.49205192 
Au      20.02310284      14.20052107      12.46613695 
Ag      14.42126306      14.06944813      22.03186647 
Au      21.78261446      21.05173061      15.83027383 
Ag      12.73411677      21.08665828      18.94622667 
Ag      13.67322563      17.00989966      22.45856830 
Au      20.92187463      17.09364745      12.19407354 
Ag      22.26512815      19.86470277      19.83986924 
Ag      12.24503275      19.97145375      14.84409213 
Ag      19.98585154      21.74121001      20.45802564 
Ag      14.56285596      21.78996481      14.20762956 
Au      15.74492807      10.89584357      17.56769336 
Ag      18.68096259      10.78907697      16.94294539 
Ag      22.11717612      14.10533324      19.93513955 
Au      12.36321363      14.26855066      14.60402993 
Au      16.99801220      21.76125026      21.39641054 
Au      17.57691798      21.77432279      13.19788923 
Au      19.71415032      12.19741338      20.62333335 
Ag      14.75069893      12.33141164      13.83839900 
Au      23.10938221      16.89974237      19.48816609 
Ag      11.29697539      16.97765530      15.13693856 
Ag      20.01058094      20.10856730      12.52803327 
Ag      14.51945207      20.13259960      22.05414814 
Ag      20.46432748      23.01156017      13.55594056 
Ag      14.07344893      23.06481749      21.11450583 
Ag      24.53148496      14.62586233      17.86191347 
Au       9.74531568      14.65119345      16.73833348 
Au      17.26093791      24.85479490      17.32809082 
Au      21.37078704      10.63932831      14.81624584 
Ag      12.76500933      10.93212501      19.70791962 
Ag      16.38180828       9.89174375      13.81773114 
Au      18.27045032       9.59914297      20.67772306 
Ag      10.56236424      18.26996195      21.29676209 
Ag      24.07461063      18.20201632      13.40236690 
Au      24.51044385      20.37866876      16.88984977 
Au      10.06992245      20.47859423      17.80621406 
Ag      23.64183625      18.36727311      22.10744910 
Ag      10.86704989      18.54903129      12.52168736 
S      19.30517762       9.52336748      14.74986288 
S      14.81927507       9.71453733      19.66959577 
Ag      14.75112348      18.82991656      24.71932442 
Au      19.91003311      18.87378059       9.78942712 
Ag      18.27348568      13.33602589      10.10895460 
Au      16.18920269      13.16014271      24.40169656 
Ag      19.26178504      21.94081561      23.36260776 
Ag      15.25439910      21.96891690      11.29014914 
S      18.42366180      24.01618116      12.70488707 
S      16.16897763      23.99496886      21.92004086 
S      24.17552225      12.82419300      19.44293407 
S      10.27710680      13.04725627      15.09379523 
Au      12.64697387      13.44932667      11.71560895 
Ag      21.68125155      13.41279812      22.84957060 
S       9.00327677      16.18562069      18.36851268 
S      25.58751290      16.14399378      16.28446221 
S      11.33364534      17.12250210      23.29172918 
S      23.25660788      17.00897548      11.44935669 
S      22.76550234      22.65365090      14.19940850 
S      11.75004439      22.75164069      20.55213127 
S      22.13855941      19.31228476      23.72901956 
S      12.36746395      19.45198000      10.86682428 
S      19.08874982       8.87338250      18.60896894 
S      15.55662761       9.01797176      15.88628070 
S      15.90525297      13.46792130       9.67737224 
S      18.52959112      13.17300526      24.75462260 
S      18.43944442      20.30919039      24.94140122 
S      16.08701013      20.31053791       9.73182973 
S      24.18134903      21.27919791      19.05996203 
S      10.38180865      21.44373993      15.66580977 
S      14.91158125      25.10637679      17.44949624 
S      19.60559149      25.14255134      17.22083217 
S      16.98658923      10.47398544      11.54992614 
S      17.42311566      10.16166974      22.80803290 
S      15.98287626      16.93681257      25.52925862 
S      18.64749625      17.07066430       8.95033543 
S      22.02502551      15.46880115      24.03269348 
S      12.40200346      15.51646826      10.61397589 
S      23.42453327      11.81051242      14.79415356 
S      10.67719062      12.09795970      19.89175675 
S      13.81496683      13.13659379      24.24858759 
S      20.71202653      13.28492069      10.30548326 
S      21.61753563      11.22293097      21.86319317 
S      12.80778668      11.27146774      12.61451023 
S      20.71392907      23.43762664      22.09305299 
S      13.84342916      23.49099855      12.56516580 
S      25.19030550      17.05184833      20.78894140 
S       9.23751548      17.30150266      13.77506894 
S      13.74986119      20.97829249      24.24838054 
S      20.92891102      20.94534627      10.36021385 
S      25.49174259      19.46457854      14.92305118 
S       9.13014950      19.50942144      19.75928453 
C      18.86319112      14.44028509      26.03852175 
C      15.55949671      14.82078068       8.48525380 
C      23.44274119      22.94336501      18.84216863 
C      11.18301416      23.07523976      15.90735863 
C      20.91369946       8.81017029      18.80244100 
C      13.74623817       8.83903217      15.64353242 
C      10.69004946      15.40970067      23.11307216 
C      23.78669384      15.27092809      11.70341729 
C       8.19833819      15.16821524      19.66464125 
C      26.36583391      15.05549061      15.02376473 
C      22.70724582      21.04166886      23.96636074 
C      11.80262828      21.18170494      10.62192410 
C      14.68909487      26.24592666      18.87627104 
C      19.82021468      26.25739600      15.77319802 
C      23.84544470      15.57060163      24.27439342 
C      10.59610491      15.71619067      10.34717115 
C      19.86904788      16.02487556       8.06707400 
C      14.72148103      15.91801280      26.39024387 
C      19.80547822      24.97158348      21.65340759 
C      14.78431743      25.01121750      12.98477500 
C      21.26075160      11.57509575      10.68645313 
C      13.30121797      11.40551645      23.91932726 
C      24.43502377      10.99773709      16.09473245 
C      19.63304356       7.76978870      15.18304968 
C      14.38759396       7.99103307      19.18411102 
C      26.33233786      18.16532988      19.87982813 
C       8.12423913      18.45834609      14.66923316 
C      18.71124612      24.17654996      10.89865124 
C      15.93965383      24.16416854      23.73279219 
C      23.29111343      24.14702509      15.12924500 
C      11.23144828      24.24654693      19.61860838 
C      17.30481921      21.12976098       8.63126367 
C      20.97677375      10.16665342      23.22080299 
C      13.39006794      10.26519137      11.19333840 
C      11.92053675      20.80836940      24.31148556 
C      22.74703452      20.70069999      10.37805206 
C       9.09612102      13.36120488      13.72728395 
C      18.37137681       9.33844367      11.14449439 
C      16.03685124       8.99491969      23.08449910 
C       8.55711333      20.96331617      20.71735624 
C      25.98831005      20.95204310      13.97369546 
C      17.22857065      21.14237777      26.04235255 
H      16.76536810      20.37127289      26.67103430 
H      16.44551185      21.66353496      25.48454143 
H      17.76687496      21.85497566      26.67758233 
C      25.37013059      13.13498070      20.80230453 
H      26.34080209      12.71401095      20.51525083 
H      25.00208269      12.62609528      21.70162309 
H      25.48416670      14.20706260      21.00008889 
C       9.57018768      11.29573884      18.65866693 
H       8.72917344      11.97291172      18.46541712 
H       9.19715697      10.35681940      19.08280337 
H      10.08341406      11.09990603      17.71262653 
H      26.68596543      15.68401652      14.18348629 
H      25.66985760      14.29076222      14.66288641 
H      27.24363087      14.57276785      15.46824144 
H      26.60834915      17.68257385      18.93494760 
H      27.22286019      18.30144989      20.50491643 
H      25.87712403      19.13926806      19.67703858 
H      26.44958559      20.61334495      13.03849350 
H      26.72755743      21.50809711      14.56190970 
H      25.12259573      21.59036990      13.75538365 
H      24.19536552      23.61131836      18.40935027 
H      23.14769117      23.30504917      19.83501305 
H      22.55693861      22.90100975      18.19660620 
H      23.40629368      24.97696147      14.42244426 
H      24.25691158      23.93238209      15.60272850 
H      22.56010595      24.41368438      15.90021127 
H      20.19969055      25.35601748      20.70573976 
H      19.98019556      25.70588574      22.44844469 
H      18.72921206      24.78864669      21.55316178 
H      20.89684151      26.34796889      15.58500564 
H      19.40978411      27.24194858      16.02257971 
H      19.32716503      25.85982659      14.87990383 
H      17.73929923      24.19817399      10.39086260 
H      19.31771859      23.34888385      10.51446122 
H      19.23589390      25.12401329      10.72558187 
H      15.07385003      27.23359305      18.59977536 
H      15.20398789      25.87832539      19.76994997 
H      13.61357971      26.31611089      19.07852039 
H      14.61965097      25.74230085      12.18471988 
H      15.85710143      24.80811460      13.08219658 
H      14.40194819      25.40988709      13.93139506 
H      10.23984621      24.05370327      19.19125099 
H      11.93280826      24.47579248      18.80934003 
H      11.17063390      25.09620228      20.30801876 
H      16.75217292      21.78425312       7.94678963 
H      17.82447521      20.34837459       8.06302916 
H      18.03992086      21.71428701       9.19106060 
H      23.11724681      20.75222720       9.34793771 
H      23.02070988      19.73543296      10.81589741 
H      23.18399715      21.51143122      10.97294903 
H      23.27313875      14.65156199      10.95808216 
H      23.52741607      14.91420032      12.70731040 
H      24.87132749      15.22034206      11.55434657 
H      20.22114391      16.56954288       7.18402730 
H      19.35480659      15.10710857       7.75399244 
H      20.71667341      15.76138207       8.70669766 
H      21.17251160      10.96864492       9.77764061 
H      20.66738718      11.13157044      11.49204919 
H      22.31072041      11.61843717      10.99842907 
H      18.87708101       9.72011447      10.25030995 
H      17.95059517       8.34967686      10.92850959 
H      19.08030212       9.26280643      11.97633803 
H      13.57290741       7.97439705      14.99195467 
H      13.31022822       9.73402192      15.18597001 
H      13.27784229       8.66026418      16.61813552 
H      12.53508500      10.07231771      10.53585165 
H      13.77690872       9.31942635      11.59153490 
H      14.18687241      10.77116739      10.63893794 
H      15.74377266      14.43663738       7.47532887 
H      16.19234534      15.69688633       8.66509364 
H      14.50405316      15.10061189       8.58820419 
H       9.49958780      12.86740605      12.83438045 
H       8.97590029      14.43542241      13.54715729 
H       8.13077252      12.91749107      13.99755726 
H      10.26653632      14.97868786       9.60704890 
H      10.43806252      16.72949504       9.95626442 
H      10.02900871      15.59374878      11.27475350 
H       7.25684940      18.65485051      14.02849985 
H       8.62120092      19.40401713      14.90552137 
H      10.83449924      21.15187638      10.10860002 
H      12.53892096      21.69472254       9.99016985 
H      11.70190247      21.72293641      11.56759051 
H      11.44730468      23.45773313      14.91361140 
H      12.09575728      22.98929848      16.50996499 
H      10.47273036      23.75324602      16.39243647 
H      20.30846001       7.32784826      14.44327292 
H      18.66275602       7.25838097      15.15535681 
H      20.05180697       7.67534878      16.18954119 
H      24.73645821      10.01056517      15.72660332 
H      23.88648559      10.90266303      17.03647409 
H      25.32246843      11.62025186      16.26141230 
H      24.07935527      16.58508745      24.62211468 
H      24.39671507      15.37056474      23.35068921 
H      24.13757760      14.84460319      25.04143249 
H      19.93097158      14.68681781      25.98543912 
H      18.62613154      14.00829647      27.01728644 
H      18.26799852      15.34600343      25.87580793 
H      15.16867027      14.94319690      26.62209812 
H      13.83032995      15.76439159      25.77354981 
H      14.44662062      16.43461043      27.31692337 
H      12.22931060      11.42411673      23.68845739 
H      13.47292064      10.80257579      24.81799458 
H      13.84445859      10.97824956      23.07065480 
H      16.44599015       7.98465843      23.19673865 
H      15.32761168       9.02306421      22.24947003 
H      15.53844546       9.29171402      24.01472766 
H      20.54084699       9.26240300      22.77935359 
H      20.21243647      10.67883310      23.81452711 
H      21.83008457       9.90395219      23.85730037 
H      14.50838939       7.35489262      20.06920124 
H      15.08433288       7.66955198      18.39965451 
H      21.96547305      21.56139247      24.58614038 
H      22.82335804      21.57506956      23.01806113 
H      23.66876748      21.00972309      24.49192024 
H      11.48364373      21.51581847      23.59717081 
H      11.59471747      21.05920575      25.32764487 
H      11.59640636      19.79099641      24.07045584 
H      15.45551429      25.13048687      23.91886823 
H      16.92562960      24.14875968      24.21365632 
H      15.31295060      23.35830161      24.13088479 
H       7.79671097      21.49066691      20.13000873 
H       9.39277706      21.63615870      20.94794407 
H       7.25898876      14.77237168      19.26171918 
H       7.98348831      15.83145225      20.51199430 
H       8.84874943      14.34628830      19.98724732 
H       9.61418050      15.41822819      23.32065098 
H      11.20387483      14.77473329      23.84430076 
H      10.87158592      15.01669104      22.10624730 
H      21.35740553       8.71911296      17.80258479 
H      21.17792454       7.93207337      19.40272446 
H      21.29701228       9.71589505      19.28559043 
H      13.35947923       7.91103671      18.81995205 
H       8.10730901      20.59234220      21.64588130 
H       7.79769161      17.97589128      15.59746829 
