322
Properties=species:S:1:pos:R:3 i=207 optimized=T E=-4516.7336275724 pbc="F F F" jobid=102_44-Ag-90_2-000007-PBE
Ag      16.81011049      17.04283180      15.92766458 
Ag      17.65327780      17.01847875      18.72410240 
Ag      18.59222990      14.95533172      16.91693261 
Ag      15.86466270      14.95805177      17.70297877 
Au      19.48432920      17.75994638      16.63014211 
Ag      14.99146887      17.78492894      18.02673739 
Ag      17.23937594      19.54651903      17.33494158 
Ag      17.80084847      15.06688993      13.99744222 
Ag      16.67494095      14.99935741      20.58794402 
Ag      18.17609936      19.53491703      20.18067696 
Ag      16.30807410      19.58271914      14.49729600 
Ag      19.44802408      14.96778006      19.83083967 
Ag      15.03213024      15.01961278      14.78976955 
Ag      18.62270523      17.87995285      13.74432575 
Ag      15.88186227      17.82687666      20.91984233 
Ag      20.38850977      17.75325984      19.49264043 
Ag      14.10440312      17.80865566      15.15512720 
Ag      21.32360370      15.70539856      17.65099341 
Ag      13.16460479      15.75990846      16.96526463 
Ag      13.95221850      15.76121475      19.83128340 
Ag      20.51749808      15.76114499      14.78392942 
Ag      15.43672091      20.30902472      19.46159369 
Ag      19.08734829      20.33139079      15.22863042 
Au      20.00064004      20.33974175      18.04441930 
Ag      14.50752469      20.36814529      16.65428818 
Ag      17.63686177      12.79892388      18.78406405 
Ag      16.81121625      12.84623261      15.78659059 
Ag      15.96009000      17.11779747      13.05111256 
Ag      18.53459345      17.03196996      21.59408013 
Ag      19.59765334      13.01943676      15.10872360 
Ag      14.84671598      12.99832750      19.46518210 
Ag      13.12577650      18.52791154      20.08342911 
Ag      21.36277104      18.52292705      14.57594133 
Ag      20.38413044      12.96965010      17.91194838 
Ag      14.07873909      12.99341563      16.67098505 
Ag      22.16297616      18.54981668      17.30693004 
Ag      12.35354967      18.62430914      17.35365968 
Ag      17.69793348      22.07170869      18.69473993 
Ag      16.79706074      22.09231433      16.01733626 
Ag      20.43406554      19.23518014      21.99599339 
Ag      14.05633374      19.31508679      12.67135433 
Ag      18.71535545      14.33858990      22.56092634 
Ag      15.71859113      14.43686956      12.04722837 
Ag      17.19406382      19.35571653      11.70329233 
Au      17.37055310      19.28002371      22.95622949 
Ag      18.16427108      16.26734558      11.34429151 
Ag      16.30396201      16.15252622      23.26760969 
Ag      21.31615216      16.27477393      21.75078028 
Ag      13.17489804      16.35434610      12.86972373 
Ag      23.17734413      16.47596720      15.61669847 
Ag      11.30835103      16.51437232      18.97139676 
Ag      22.32632339      13.72348321      15.87082291 
Ag      12.14413298      13.75019489      18.70345931 
Ag      14.93792602      22.79499930      18.14834973 
Ag      19.58462116      22.77438851      16.59894074 
Ag      17.67607153      12.41763987      13.01651688 
Ag      16.74683424      12.34012511      21.54380254 
Ag      20.01741846      14.22154593      12.48882955 
Ag      14.44301296      14.16848725      22.11423996 
Ag      21.79121064      21.07497487      15.89860124 
Au      12.76149946      21.08937934      18.84865822 
Au      13.63735470      17.01949916      22.42160546 
Ag      20.83642650      17.09653716      12.17326899 
Ag      22.26001669      19.89522663      19.82549406 
Ag      12.25232447      19.97442084      14.84711114 
Ag      19.97323911      21.74907546      20.46187190 
Ag      14.56294141      21.79163319      14.21638969 
Ag      15.74885706      10.83793447      17.60966369 
Au      18.68592874      10.90896718      16.91260083 
Ag      22.11478416      14.11111716      19.92874796 
Ag      12.35409824      14.20071005      14.66434286 
Au      16.96239275      21.74533218      21.44828926 
Au      17.55963722      21.77859826      13.26764766 
Ag      19.71622439      12.24764464      20.69406924 
Ag      14.72909610      12.30510002      13.89191329 
Ag      23.13304844      16.88223422      19.46385253 
Ag      11.36249231      16.97824007      15.18156516 
Ag      19.98969145      20.13043490      12.58393177 
Ag      14.55659120      20.04882159      22.12229058 
Ag      20.48198666      22.97580302      13.67531743 
Ag      14.03371022      22.93528301      21.10815189 
Ag      24.50232285      14.57807919      17.86940484 
Ag       9.96839681      14.64801390      16.73037751 
Au      17.28177016      24.88901865      17.38250514 
Ag      21.54625240      10.87967489      14.83024057 
Ag      12.89117070      10.88414964      19.71054662 
Ag      16.38145523       9.86085839      13.84639126 
Ag      18.01824534       9.82731363      20.62260858 
Ag      10.43990451      18.17453805      21.27930292 
Ag      24.05008997      18.25875216      13.41335047 
Ag      24.46031987      20.33413054      16.98042694 
Ag      10.07097438      20.38827661      17.81466783 
Ag      23.65684559      18.37917209      22.03827321 
Ag      10.84340324      18.48277567      12.61267214 
S      19.47325812       9.67709136      14.78741875 
S      14.93320178       9.63571973      19.74223530 
Au      14.68116273      18.76164460      24.83691910 
Ag      19.78305170      18.86967777       9.89339550 
Ag      18.20710624      13.34280838      10.18226886 
Ag      16.25364372      13.17306648      24.38692944 
Ag      19.27763794      21.91710643      23.39871043 
Ag      15.26700577      22.00284941      11.30220440 
S      18.45234691      24.02210789      12.81211250 
S      16.06621609      23.96186299      21.97952779 
S      24.11791968      12.75818917      19.41735136 
S      10.35624138      12.83884483      15.17360971 
Ag      12.74082032      13.47049019      11.76909555 
Ag      21.70900327      13.35495687      22.81300675 
S       8.95093694      16.17684789      18.30177773 
S      25.52873738      16.10857721      16.30355669 
S      11.29944295      16.97950490      23.20484565 
S      23.21475197      17.15525807      11.43421795 
S      22.80726238      22.68309114      14.29552388 
S      11.70239351      22.64894436      20.46755882 
S      22.26367071      19.41785472      23.69454138 
S      12.24844441      19.50444543      10.95507540 
S      18.84910839       8.97394017      18.55232701 
S      15.53124536       8.96976309      15.88723574 
S      15.82185302      13.43454930       9.77193154 
S      18.63505305      13.29275881      24.81793724 
S      18.47090931      20.24023872      24.94446859 
S      16.07610572      20.37366243       9.72107072 
S      24.23814030      21.28444419      19.19734330 
S      10.29105239      21.33369174      15.58746171 
S      14.93905964      25.18436643      17.48368520 
S      19.62903898      25.15595802      17.27992633 
S      17.04171908      10.45291718      11.59638688 
S      17.42421462      10.34493042      22.90972408 
S      15.91625594      16.92514320      25.64460943 
S      18.46467562      17.08533277       8.98573776 
S      22.08311590      15.42976846      23.96260848 
S      12.37655747      15.56119612      10.64563600 
S      23.65206565      12.01459286      14.63755336 
S      10.79985024      12.04617953      19.92169865 
S      13.82114965      13.14153074      24.27475862 
S      20.64371712      13.35691074      10.26722906 
S      21.62719140      11.13893743      21.87586152 
S      12.80904547      11.24530209      12.67905296 
S      20.66472005      23.44021958      22.11337823 
S      13.85565102      23.51000555      12.59145378 
S      25.22090409      17.02090724      20.78673669 
S       9.27157176      17.13457685      13.86672843 
S      13.67720618      20.85348502      24.32067073 
S      20.82117973      20.99579781      10.41176894 
S      25.47882410      19.42753369      14.97519967 
S       9.00847010      19.41652974      19.77848057 
C      18.97293914      14.60677766      26.05576519 
C      15.46847724      14.75647486       8.54771147 
C      23.53742325      22.97053220      18.99326170 
C      10.99684493      23.01675717      15.79358055 
C      20.65683582       8.76691311      18.79622727 
C      13.72523294       8.74895244      15.63425460 
C      10.72740708      15.24871690      22.98923669 
C      23.81090191      15.42072387      11.54205473 
C       8.15581928      15.12568120      19.58181378 
C      26.31682255      15.05678628      15.01945582 
C      22.89642658      21.13852300      23.82171686 
C      11.64448705      21.23431343      10.81585815 
C      14.71782489      26.26251905      18.95755995 
C      19.85545014      26.25932091      15.82590824 
C      23.90335321      15.55687641      24.18572070 
C      10.55640830      15.70492015      10.43332383 
C      19.64400101      16.04633729       8.03333394 
C      14.66386855      15.87628605      26.47944894 
C      19.71002657      24.95484488      21.70402948 
C      14.80546254      25.01866998      13.03265247 
C      21.24916972      11.65401806      10.60132057 
C      13.25094027      11.44900922      23.84440303 
C      24.76653486      11.20245723      15.85728854 
C      19.84720645       7.93787996      15.26108013 
C      14.49983618       7.91587840      19.23712571 
C      26.37888304      18.12512643      19.88142561 
C       8.12212350      18.24745752      14.77331226 
C      18.75024177      24.21809430      11.01204231 
C      15.78825793      24.11651091      23.78771032 
C      23.28515583      24.20751569      15.20497992 
C      11.23531023      24.18197585      19.57041137 
C      17.30512824      21.20702174       8.63940660 
C      20.99490318      10.12786611      23.27573399 
C      13.44468972      10.24820379      11.27073395 
C      11.85635555      20.62930378      24.33472838 
C      22.64848015      20.80023426      10.38237106 
C       9.13911042      13.10901980      13.82354349 
C      18.44756970       9.32687046      11.24062388 
C      16.04322016       9.18807632      23.26450620 
C       8.49308349      20.88716378      20.74885455 
C      26.02063546      20.92973716      14.06931583 
C      17.23104414      21.04086812      26.03451549 
H      16.71846970      20.25066938      26.59697011 
H      16.49145990      21.61428454      25.46909169 
H      17.76723999      21.70282119      26.72479252 
C      25.33650019      13.00986947      20.76930367 
H      26.28927089      12.56060201      20.46603487 
H      24.95719768      12.49996100      21.66338274 
H      25.48556042      14.07507654      20.97958751 
C       9.67021772      11.25866660      18.69999500 
H       8.77549007      11.88752756      18.61617858 
H       9.38615183      10.26921255      19.07477614 
H      10.12877410      11.16956071      17.71046207 
H      26.61456903      15.70847665      14.18866070 
H      25.63059277      14.28460766      14.65231082 
H      27.20887990      14.58650406      15.44841578 
H      26.63769183      17.65406291      18.92605967 
H      27.27935465      18.23900093      20.49598539 
H      25.94044568      19.11143910      19.69986497 
H      26.47790550      20.61777223      13.12327296 
H      26.77158126      21.44670063      14.67834429 
H      25.17485072      21.60033394      13.87131125 
H      24.30447964      23.62067947      18.55829019 
H      23.25398907      23.34421261      19.98447184 
H      22.64851735      22.95956595      18.35102792 
H      23.32237478      25.04536697      14.49955287 
H      24.28213184      24.05066030      15.63424731 
H      22.57766310      24.43223306      16.01042807 
H      20.08622931      25.36066880      20.75795679 
H      19.87490204      25.68271322      22.50703986 
H      18.63771007      24.74653751      21.61234850 
H      20.93372044      26.34549993      15.64568354 
H      19.44518114      27.24616705      16.06587516 
H      19.36811314      25.85490158      14.93239192 
H      17.78118876      24.26179410      10.50007264 
H      19.34912451      23.39001761      10.61542658 
H      19.28712312      25.16243396      10.86122100 
H      15.14106627      27.24911499      18.73993973 
H      15.19479164      25.83580884      19.84628684 
H      13.63957370      26.35837028      19.13325759 
H      14.65090017      25.75777537      12.23787745 
H      15.87671021      24.80875159      13.13480737 
H      14.41835593      25.41246516      13.97940450 
H      10.25236983      24.02513300      19.10983648 
H      11.96587388      24.42624117      18.79162988 
H      11.17213397      25.00431991      20.29256997 
H      16.77811807      21.92732631       8.00351706 
H      17.76896724      20.43538143       8.01180680 
H      18.08489025      21.71922124       9.21035917 
H      23.00031636      21.09462758       9.38670348 
H      22.95107039      19.76683095      10.57923208 
H      23.08242696      21.46432790      11.13865129 
H      23.28099367      14.83531319      10.78102654 
H      23.61091655      14.98693158      12.52856228 
H      24.88798398      15.40813580      11.34174097 
H      19.94877952      16.60155260       7.13923635 
H      19.12369526      15.12736144       7.73487576 
H      20.52589474      15.77721806       8.62222514 
H      21.13250174      11.04999291       9.69435909 
H      20.70829587      11.18594330      11.42969809 
H      22.31227242      11.72012079      10.86063049 
H      18.94915940       9.68079352      10.33289845 
H      18.04554656       8.32269506      11.06383350 
H      19.15623500       9.29884080      12.07581647 
H      13.56626553       7.85449127      15.02070481 
H      13.27550665       9.61466680      15.13418909 
H      13.25133950       8.60382154      16.61233258 
H      12.59592226      10.00489112      10.62146083 
H      13.88439242       9.32623031      11.66931390 
H      14.20771421      10.78620798      10.69850935 
H      15.62416914      14.33519463       7.54779452 
H      16.12366458      15.62429423       8.68711878 
H      14.42127860      15.06051084       8.66373520 
H       9.51579111      12.60378909      12.92571165 
H       8.99687721      14.17676458      13.62165195 
H       8.18350228      12.66358859      14.12336050 
H      10.24029501      14.99135838       9.66419074 
H      10.34110811      16.72758459      10.09798916 
H      10.01419452      15.50975697      11.36319494 
H       7.22116493      18.36535916      14.16003077 
H       8.56670890      19.23135805      14.95301950 
H      10.65345723      21.21867465      10.34875406 
H      12.34362051      21.78493354      10.17404969 
H      11.58437563      21.73211235      11.78865059 
H      11.29386463      23.38822928      14.80556061 
H      11.87598893      22.99945222      16.44913187 
H      10.22742269      23.67108068      16.21831804 
H      20.90948302       7.79870755      15.48129225 
H      19.56500942       7.29895917      14.41577432 
H      19.24512432       7.67601517      16.14070424 
H      25.03671925      10.21079320      15.47813366 
H      24.30516200      11.11503386      16.84568073 
H      25.67035784      11.81751925      15.94591019 
H      24.12643186      16.57535713      24.52851739 
H      24.44856990      15.36228741      23.25753691 
H      24.20899341      14.83558957      24.95189965 
H      20.02262544      14.90821627      25.95597153 
H      18.80134995      14.18206117      27.05153317 
H      18.32443987      15.47805476      25.91162509 
H      15.16107515      14.94808738      26.78858465 
H      13.83071430      15.63137812      25.81385961 
H      14.29412406      16.40940689      27.36196610 
H      12.19168473      11.51195202      23.56878862 
H      13.36069257      10.80095690      24.72130746 
H      13.81376096      11.03240936      23.00320332 
H      16.46612602       8.18824930      23.41521974 
H      15.32291348       9.16457281      22.43902890 
H      15.54979335       9.51554616      24.18648058 
H      20.53940162       9.21755017      22.86878533 
H      20.24491999      10.66626227      23.86451624 
H      21.84841582       9.86504542      23.91107681 
H      14.74377070       7.25118684      20.07410056 
H      15.09778770       7.64389610      18.35841383 
H      22.20863834      21.70735192      24.45982747 
H      22.96496893      21.62704288      22.84465364 
H      23.88763162      21.10874971      24.28780113 
H      11.41692516      21.45014550      23.75579852 
H      11.50700874      20.67592661      25.37236243 
H      11.56288022      19.67102839      23.89457945 
H      15.24291548      25.05152445      23.96465343 
H      16.76289761      24.16113232      24.28879358 
H      15.20400228      23.27460955      24.17553847 
H       7.73496998      21.42966080      20.17144828 
H       9.34563698      21.54713450      20.95367518 
H       7.24969478      14.67970065      19.15613186 
H       7.88018159      15.77356113      20.42328151 
H       8.82944498      14.33474943      19.93181177 
H       9.65445580      15.21578029      23.21109146 
H      11.27845896      14.62038513      23.69975578 
H      10.90836210      14.88599494      21.97113881 
H      21.13312168       8.65669407      17.81473643 
H      20.81735402       7.85423299      19.38255900 
H      21.09660822       9.61967272      19.32628780 
H      13.43531939       7.82307224      19.00326417 
H       8.05016939      20.54668640      21.69179501 
H       7.86183651      17.77868285      15.72935913 
