646
Properties=species:S:1:pos:R:3 i=101 optimized=T E=-10152.7152376543 pbc="F F F" jobid=246_80-Ag-60_2-000005-PBE
Ag      21.87332943      20.20945749      20.92044554 
Ag      24.72470138      20.22933919      21.82198726 
Ag      20.43224577      22.70112401      20.40871950 
Au      19.68289980      20.98406596      22.69793805 
Au      20.00758775      18.15490213      21.86141964 
Au      21.10267665      23.52412691      23.12006156 
Au      20.33970702      21.75486079      25.38055479 
Ag      20.67836882      18.98103637      24.59978855 
Ag      20.94400575      16.14529833      23.74564238 
Au      21.87891847      16.09268767      20.95831729 
Au      22.71690850      16.17321743      18.13237225 
Au      23.04713103      18.94298561      17.21236993 
Ag      23.31066404      21.73751002      16.34236798 
Au      22.60222517      23.47400866      18.56852218 
Au      21.81699274      25.17626604      20.85668904 
Ag      23.34765314      22.72693608      21.35651555 
Au      22.60193167      21.02312984      23.63959186 
Au      22.87219391      18.17985481      22.81347091 
Au      23.76245107      18.17068921      20.02034782 
Au      24.06505931      20.97853733      19.11636044 
Ag      20.92297804      14.00307517      19.02831124 
Au      21.88640378      14.07359788      16.21543172 
Ag      22.16317324      16.86404759      15.30705731 
Ag      22.36429064      19.69665556      14.43025927 
Ag      22.66559307      22.55304349      13.57162836 
Au      21.96764772      24.30988640      15.82445093 
Ag      21.15571062      26.08330671      18.14616781 
Ag      20.42045322      27.83330095      20.45350941 
Ag      25.41100169      22.49337013      14.53594318 
Ag      24.79336452      24.30098250      16.71220990 
Au      24.02181600      25.97004934      19.00281456 
Au      23.14572573      27.71265742      21.29646073 
Ag      22.51142368      26.07357754      23.59390912 
Au      21.77466673      24.35652760      25.79795857 
Au      20.98716725      22.57329869      28.08965588 
Ag      21.37710888      19.80198639      27.39188256 
Au      21.62396275      17.01796789      26.47386206 
Ag      21.86271301      14.17027782      25.60478569 
Ag      22.86764034      14.05211823      22.87938433 
Ag      23.69717011      14.06925143      20.05324595 
Au      24.54697520      14.09457849      17.22159854 
Au      24.93608743      16.82992218      16.22522116 
Ag      25.17416854      19.63493096      15.41198272 
Au      23.61303838      19.02955448      25.59685705 
Ag      23.76101701      16.21336172      24.70487467 
Ag      24.79888965      16.06374131      21.92771406 
Au      25.57300835      16.09239495      19.10077790 
Ag      25.96318316      18.88700494      18.15669570 
Ag      26.10089030      21.67647867      17.25552253 
Ag      25.53728463      23.53594612      19.50427570 
Ag      24.70037228      25.25175957      21.75740550 
Au      24.08209335      23.60847120      24.10596998 
Ag      23.20493107      21.88275443      26.34768631 
Ag      26.19363659      22.79973250      22.26877162 
Au      25.44627687      21.08357960      24.59412078 
Au      25.72814144      18.19278888      23.73983691 
Au      26.65119927      18.14640183      20.88224818 
Ag      26.93906748      20.99949283      19.97655533 
Au      27.57826318      20.23047626      22.73259720 
Ag      27.55798320      15.25069081      21.31036783 
Ag      28.39475007      17.32284614      18.71787085 
Ag      28.64309121      19.93581802      17.71484883 
Au      28.38044069      23.37691205      18.89131929 
Au      27.71719795      25.09264876      20.91983781 
Ag      26.54619126      25.04548055      24.19661233 
Ag      25.81490776      23.45343103      26.46184570 
Ag      25.55889239      20.16734108      27.38302614 
Ag      25.78322082      17.40512707      26.66097140 
Au      26.71133819      15.38592773      23.96721591 
Ag      28.46556973      17.53141696      23.05257150 
Ag      29.27775187      19.39052149      20.59008647 
Au      28.95994772      22.39030776      21.62104285 
Ag      27.97079920      22.41799856      24.56538952 
Ag      27.68740204      19.43764126      25.48308648 
Ag      25.54482182      13.29735568      22.26815590 
Ag      26.33437738      13.31283759      19.33957158 
Ag      27.28654322      15.08921261      17.03722428 
Au      27.54007960      17.91766391      15.94997903 
Ag      27.71316208      20.80149508      14.99942337 
Ag      27.60982259      23.69731966      16.03375269 
Ag      26.79825386      25.75010539      18.16935343 
Ag      25.90738083      27.55031354      20.44490816 
Au      25.02069265      27.48250454      23.43536191 
Ag      24.28463355      25.92838691      25.85541320 
Au      23.32576425      24.22512273      28.12776742 
Ag      23.39502146      21.25230255      29.10800506 
Ag      23.55873015      18.25970831      28.35778719 
Ag      23.68608706      15.37913571      27.50562755 
Ag      24.68762187      13.60927748      25.16407898 
Ag      24.25372702      11.74576311      15.36557278 
Ag      24.14704358      14.80532476      14.35609356 
Ag      24.22248724      17.63268191      13.45800897 
Au      24.46135645      20.45746016      12.70347313 
Ag      25.29792359      23.31826625      11.59402146 
Ag      24.13155270      25.10620141      14.02123669 
Ag      23.27619645      26.82761302      16.27427945 
Au      22.56553565      28.51387413      18.57068480 
Ag      22.33689772      30.60695749      20.88853568 
Ag      21.20189705      28.64171569      23.25834043 
Au      20.28586345      26.87084536      25.40026042 
Ag      19.63497434      25.15245485      27.70700267 
Ag      19.29512326      23.52182538      30.40592016 
Ag      19.24431190      20.54266975      29.23205041 
Ag      19.48095478      17.75952844      28.33660373 
Ag      19.78710970      14.94730564      27.47877754 
Ag      20.45122995      11.88406591      26.99814129 
Ag      21.06039632      11.97874244      23.81483974 
Ag      21.86017384      12.02635467      20.96329248 
Ag      22.77242657      11.96860636      18.15364856 
Au      29.63575288      14.39907748      23.38062902 
Ag      31.17084344      18.29956197      18.02402236 
Au      30.77673080      24.96925404      20.08191882 
Ag      28.49519887      24.82169414      26.56744998 
Ag      27.86324442      18.45378252      28.51157912 
Ag      28.84936435      27.63768073      19.14693316 
Ag      30.14041966      18.68265562      14.87720017 
Au      27.95055630      11.68880102      21.83085694 
Ag      25.41965838      16.57562667      29.90049448 
Ag      25.92577837      26.09069197      28.30864087 
Au      26.55018642      26.68523519      15.22217267 
Au      23.17360334      28.85671551      25.72200090 
Ag      21.57594721      19.01166297      30.51233738 
Au      23.95030987      10.93588001      23.43382775 
Au      27.03490703      15.67600515      13.81756026 
S      29.65770944      22.73180259      26.36909605 
S      29.48033972      18.25162951      26.74278238 
S      30.70207739      16.41635882      22.82400645 
S      31.65593691      19.70789966      19.89894597 
S      31.04233350      23.68040020      22.02932551 
S      27.81222620      27.05224783      27.14552980 
S      30.65752855      26.34471401      18.17508048 
S      31.23987646      16.89239963      16.07808286 
S      28.83299659      12.24825627      23.95667602 
S      26.66848271      18.51468239      30.60287619 
S      27.96202311      26.60534010      22.85223855 
S      29.64582175      22.18664663      17.13885783 
S      28.93090983      14.90814813      19.20452829 
S      26.75038449      15.06301438      26.43901441 
S      26.04689253      22.22863520      28.68556109 
S      24.11759905      25.73855785      29.86508960 
S      27.38801623      29.42996204      19.78221255 
S      29.43836966      20.33119574      13.27358414 
S      27.09909288      10.97051011      19.77318797 
S      24.19343789      14.51835762      29.77685445 
S      22.61290006      20.99032654      31.44582497 
S      24.92819835      29.75634521      24.42223202 
S      28.12801015      25.26722288      14.17638218 
S      27.81770733      13.77726363      14.99052643 
S      24.42946981      11.20484225      25.73816468 
S      20.32403487      16.93659126      30.51610347 
S      21.37265469      28.27453514      27.11463004 
S      25.12214807      28.44845814      15.86157653 
S      26.35202390      17.26287200      12.20922389 
S      23.47082443      10.16182190      21.25696530 
S      20.24956567      10.16606454      25.32960396 
S      20.78361076      13.23223153      28.95785788 
S      18.23778516      21.53510524      31.28842819 
S      20.33819979      25.66306319      30.04619169 
S      20.94540633      31.08777692      22.79624836 
S      23.88728444      30.54027619      19.02941254 
S      24.55329476      25.60417713      11.61263003 
S      26.36867502      21.17305971      11.32537939 
S      24.10290402      12.62943037      13.13026237 
S      24.55862343      10.41804957      17.35008087 
C      31.32405653      23.08377705      25.68320700 
C      30.86403149      19.38470663      27.15827196 
C      31.77407106      16.81421709      24.25889891 
C      32.80055703      18.75965207      20.97633698 
C      32.52872611      22.63667754      21.80040023 
C      28.94336434      27.59538606      28.49778929 
C      32.11199437      27.46950180      18.27651265 
C      32.98813332      16.93426884      15.49308562 
C      30.33852575      11.19770534      24.08193098 
C      27.82124700      17.85710151      31.88417110 
C      29.68823820      26.67087382      23.47170255 
C      31.44712037      22.47717797      17.36289545 
C      30.73304921      14.55099702      19.32266214 
C      28.44319584      14.66328070      27.03486669 
C      27.66850286      22.10195890      29.54420052 
C      24.72864262      24.63624066      31.19664964 
C      28.03779204      30.04489088      21.38653216 
C      30.59352429      21.75189274      13.42163490 
C      28.55496321      10.89525375      18.65398233 
C      25.43348589      13.19668892      29.47601413 
C      23.97032773      20.41346566      32.53945276 
C      26.30793254      30.10599822      25.57636222 
C      29.76614622      26.05372599      14.43872575 
C      29.63255199      13.73156564      14.72499857 
C      26.07687470      10.43901305      26.00119414 
C      18.99640193      17.27633948      31.74442569 
C      20.36292895      29.80891579      27.16453513 
C      24.73025982      29.24715039      14.25136627 
C      25.88182051      16.20990458      10.77596502 
C      22.43271347       8.67466184      21.56427383 
C      21.50590858       8.89584863      25.75733056 
C      19.51386255      12.72007750      30.18056148 
C      19.12820704      21.13407517      32.84548255 
C      19.22005240      26.91714151      30.78509985 
C      21.96033579      32.15563490      23.89746904 
C      23.41680996      31.85345283      17.84209617 
C      26.05708398      26.61883520      11.31599093 
C      26.07120078      20.61390222       9.60498737 
C      25.69795683      12.21282547      12.31723723 
C      23.84097219       8.76894324      16.98148449 
Au      19.04250942      20.20463094      19.97785579 
Au      16.19551002      20.15408146      19.04592098 
Ag      21.18289315      20.97283820      18.15760821 
Ag      20.89250405      18.17532028      19.04894556 
Ag      19.74950177      23.51772455      17.69922464 
Ag      20.52578600      21.75483809      15.45765675 
Au      20.22097590      18.94773840      16.25861259 
Ag      19.96831312      16.15365136      17.20682496 
Au      19.03870879      16.06720547      19.96833525 
Au      18.19063562      16.12369305      22.82107580 
Ag      17.83872745      18.90581622      23.69236390 
Ag      17.58125916      21.73097692      24.52036133 
Ag      18.24551342      23.48060783      22.25810219 
Au      19.03499630      25.21236922      19.98872284 
Ag      17.56144515      22.69806525      19.51910969 
Ag      18.32810197      20.96157234      17.26375844 
Au      18.02620345      18.12391580      18.06843431 
Au      17.10957547      18.11317204      20.90932661 
Ag      16.84480901      20.92052638      21.78404187 
Au      20.07950293      13.99511090      21.89636377 
Ag      19.11940879      14.04734381      24.74686048 
Au      18.77942551      16.86282254      25.65730186 
Ag      18.53384181      19.73590317      26.49949191 
Au      18.23171942      22.57118932      27.31596737 
Ag      18.91794039      24.33401692      25.02004193 
Ag      19.71774722      26.09910719      22.71592417 
Au      15.53608225      22.46963514      26.37714383 
Au      16.07290309      24.30675930      24.11479375 
Ag      16.91058400      25.99408456      21.89012113 
Ag      17.70751204      27.74655481      19.58636332 
Ag      18.29420753      26.10025630      17.23982287 
Ag      19.09144379      24.30881640      15.02927294 
Au      19.89152101      22.48387574      12.75120044 
Ag      19.52769247      19.66698887      13.47077392 
Ag      19.35275307      16.91549623      14.39517699 
Au      19.17066218      14.10943015      15.37196369 
Ag      18.14483944      13.97453367      18.12420851 
Ag      17.23627394      14.02684386      20.89055180 
Au      16.40260085      14.08095068      23.76190450 
Ag      16.00891088      16.84315945      24.70544493 
Ag      15.75294293      19.63016656      25.53216088 
Ag      17.35234196      18.89455660      15.29818556 
Ag      17.16925555      16.11319695      16.23216615 
Ag      16.14553757      16.02369410      18.99172480 
Ag      15.36101375      16.07087880      21.84786879 
Au      14.93866503      18.85702490      22.77134778 
Au      14.77640877      21.65639231      23.65666886 
Au      15.36594189      23.48248629      21.36807105 
Au      16.21589699      25.22664164      19.14241572 
Ag      16.86365889      23.54523883      16.78219993 
Au      17.73612686      21.76688903      14.59663111 
Au      14.71663734      22.70371629      18.61779143 
Au      15.46138530      20.95932436      16.26163320 
Ag      15.17657709      18.08701244      17.12967262 
Ag      14.26948889      18.06810644      19.99952574 
Ag      14.00172992      20.92717080      20.92168519 
Au      13.35719938      20.15126646      18.12442727 
Au      13.37873365      15.22086206      19.57390407 
Au      12.51125884      17.29629128      22.23920627 
Ag      12.20078959      19.90704521      23.17182344 
Au      12.53697567      23.25713924      22.04689774 
Ag      13.22720547      24.94488273      19.90829028 
Ag      14.24795123      24.91291403      16.73119525 
Au      15.00928003      23.37156332      14.54027020 
Au      15.28610215      19.88497937      13.50373605 
Au      14.99726945      17.26354437      14.25536431 
Ag      14.21685696      15.30201073      16.92390407 
Ag      12.40578585      17.47749787      17.87465693 
Au      11.69924094      19.35528024      20.27036005 
Ag      11.90804703      22.31111959      19.32609402 
Ag      12.88141317      22.33898773      16.34684649 
Ag      13.13524899      19.33381621      15.41107258 
Ag      15.42579658      13.29104562      18.72320082 
Ag      14.57922915      13.30833746      21.63136863 
Au      13.76571120      15.16252391      23.96310840 
Au      13.38153952      17.94308697      25.03081518 
Ag      13.20977930      20.80435358      25.91790933 
Ag      13.28434649      23.72906198      24.93632132 
Ag      14.00747056      25.68527610      22.65235616 
Au      14.97749600      27.43144435      20.41185970 
Ag      15.63036377      27.44275792      17.48199767 
Ag      16.48275004      25.80166470      15.03420058 
Ag      17.40393702      23.96928531      12.78283244 
Ag      17.51694086      20.99004033      11.84720804 
Ag      17.31118303      18.00167286      12.57167501 
Au      17.28847105      15.15821741      13.54891297 
Au      16.38753971      13.43493069      15.92271079 
Au      16.66972814      11.63435235      25.53608033 
Ag      16.89055380      14.84932669      26.59130779 
Ag      16.73480185      17.66374806      27.44272076 
Ag      16.42177983      20.46473109      28.30614731 
Au      15.33205664      23.35442223      29.27625980 
Ag      16.74422410      25.09938665      26.81032353 
Au      17.57752118      26.82779320      24.59435902 
Ag      18.32734484      28.56687537      22.35756438 
Ag      18.51195463      30.59653777      19.88248996 
Ag      19.78521879      28.60150905      17.65053987 
Au      20.52970569      26.80451311      15.45811559 
Ag      21.25076662      25.09532002      13.20109201 
Au      21.45813278      23.53859625      10.40178269 
Ag      21.71105736      20.43844630      11.68818623 
Au      21.52139888      17.67324161      12.56971780 
Au      21.28727380      14.90111510      13.46595778 
Ag      20.55334010      11.88394590      13.82250981 
Au      20.02991598      11.95596653      17.17243222 
Ag      19.16157669      11.92075237      19.95011638 
Au      18.29488211      12.04779657      22.73550651 
Au      11.22426479      14.38232181      17.47901452 
Au       9.54693057      18.40066627      22.75943658 
Ag      10.34656348      24.83079454      20.78425365 
Ag      12.44750143      24.86849555      14.30033250 
Ag      13.01258815      18.40352241      12.25507672 
Au      11.90086585      27.62770377      22.08099690 
Au      10.68083171      18.61737811      26.10363490 
Ag      12.84220323      12.00504781      19.34010062 
Au      15.50478956      16.50344053      10.78263135 
Au      14.99525688      26.41419433      12.56720107 
Ag      14.36940553      26.59239584      25.52438367 
Ag      17.68563004      28.56597542      15.39336019 
Ag      19.32649430      18.97701735      10.40048508 
Ag      17.16783793      10.94987660      17.63718519 
Au      13.95487675      15.82192383      27.25368011 
S      11.26951639      22.77911126      14.49423442 
S      11.34011214      18.34230704      13.98421956 
S      10.12081586      16.41624239      17.86883842 
S       9.32012006      19.77714292      20.87025964 
S       9.91987413      23.69411603      18.70444986 
S      13.12269510      27.14500493      13.80842346 
S      10.14789312      26.20808312      22.77427306 
S       9.56973090      17.06145695      24.69707086 
S      12.09058813      12.23577339      17.04651917 
S      14.22385135      18.38199345      10.15335900 
S      12.96819314      26.61860262      18.02839001 
S      11.23741474      22.13685627      23.84216848 
S      11.83258878      15.02522662      21.56336003 
S      14.09600045      14.98564539      14.45504121 
S      14.96104028      22.06905875      12.38958253 
S      16.84293027      25.84456456      11.23841191 
S      13.58346055      29.15094408      21.47229797 
S      11.59722886      20.09080717      27.68077755 
S      13.39896792      11.11752402      21.50145196 
S      16.77439464      14.57631818      11.22265517 
S      18.24094359      20.94637701       9.47894676 
S      15.96979748      29.73893330      16.64366719 
S      12.71053520      25.31577665      26.74675456 
S      13.06665170      14.00307457      26.02019998 
S      16.43331500      11.06378123      15.30125020 
S      20.68264606      16.97010849      10.35302700 
S      19.50005483      28.29111368      13.79795877 
S      15.79091225      28.47714154      24.95390460 
S      14.70180553      17.38494555      28.85550363 
S      17.75031161       9.87056940      19.72856189 
S      20.75946824      10.21793640      15.55344570 
S      20.23727358      13.31494967      11.90194626 
S      22.54170071      21.60325558       9.60952337 
S      20.40716459      25.58173888      10.90623254 
S      19.86689011      31.08581378      17.96328342 
S      16.94733451      30.53733713      21.69770155 
S      16.21899212      25.53825583      29.21710561 
S      14.39212029      21.22285020      29.60160837 
S      16.80824863      12.59161681      27.67973830 
S      16.52684642      10.51601242      23.46234842 
C       9.57693724      23.12930613      15.10949163 
C      10.00797019      19.53009303      13.56502910 
C       9.12723115      16.78235315      16.37320356 
C       8.20232598      18.89874837      19.71359281 
C       8.35751744      22.75327513      18.91380959 
C      11.97096133      27.80228702      12.53152241 
C       8.63636670      27.24019311      22.57790894 
C       7.83673613      17.09500877      25.31347386 
C      10.61745597      11.13201202      16.96755994 
C      13.08876684      17.72564778       8.86153474 
C      11.31485787      26.90293403      17.27253000 
C       9.42923779      22.39522183      23.64445633 
C      10.04055158      14.98986191      21.17627243 
C      12.33920885      14.88885488      13.93353634 
C      13.37264754      22.09205273      11.46837912 
C      16.14362942      24.91769420       9.81373291 
C      12.91386907      30.01360549      19.99656311 
C      10.44382694      21.51918525      27.74874720 
C      11.91646755      11.38153607      22.55474288 
C      15.52644419      13.24707491      11.42911538 
C      16.92433546      20.33990722       8.35179177 
C      14.64353432      30.20516140      15.46326934 
C      11.08241750      26.11291466      26.45723361 
C      11.25177044      14.08135937      26.26190969 
C      14.75459633      10.32924094      15.24537458 
C      22.03154523      17.38088391       9.17420264 
C      20.43074543      29.87130554      13.91706575 
C      16.19130605      29.22051408      26.58668468 
C      15.24004933      16.33686454      30.26770122 
C      18.91159677       8.54496939      19.20010311 
C      19.49767486       8.92794134      15.21465975 
C      21.47132381      12.87898498      10.62172542 
C      21.67838647      21.18647644       8.04327318 
C      21.43254033      26.89246629      10.13510742 
C      18.80793157      32.11389085      16.86800513 
C      17.36583929      31.94605738      22.79832807 
C      14.80239030      26.66852112      29.51413210 
C      14.61380058      20.86236464      31.38675865 
C      15.21218234      12.22863743      28.51061517 
C      17.27004230       8.85848674      23.69107016 
H      31.82210036      22.12176621      25.50952114 
H      31.89902526      23.66114929      26.41557846 
H      31.26445499      23.63191732      24.73683108 
H      31.56510354      19.37908832      26.31449533 
H      31.37356400      19.01282654      28.05403474 
H      30.50610159      20.40715767      27.32161024 
H      32.24288713      17.78386977      24.04987420 
H      32.55003436      16.04681216      24.35222862 
H      31.18818057      16.88429773      25.18179664 
H      33.76367825      18.65197223      20.46508419 
H      32.39356705      17.77332281      21.22267299 
H      32.94472579      19.33249806      21.90077948 
H      33.40285803      23.29159090      21.71265229 
H      32.43558595      21.99423608      20.91818470 
H      32.62602696      22.01246572      22.69743082 
H      29.90566299      27.87368973      28.05263661 
H      29.10002730      26.80541800      29.23773848 
H      28.50194966      28.47114148      28.98751866 
H      31.98899691      28.24216974      17.50828996 
H      33.01874788      26.88900900      18.07205939 
H      32.18946945      27.93986982      19.26060920 
H      33.01840614      16.54251450      14.46965036 
H      33.59017488      16.29169064      16.14596524 
H      33.39562338      17.94912384      15.50520208 
H      30.01474220      10.15477033      24.17844005 
H      30.88727145      11.49948454      24.98158864 
H      30.97792621      11.30959297      23.20197538 
H      28.55600927      18.63569127      32.12008094 
H      28.34098119      16.95835769      31.54034775 
H      27.24019623      17.62142520      32.78336431 
H      30.31431804      27.17354405      22.72487815 
H      30.08343907      25.66827686      23.66143424 
H      29.66898479      27.24806336      24.40449190 
H      31.97540925      21.93218288      16.57137771 
H      31.76546890      22.10525849      18.34242676 
H      31.63715400      23.55313266      17.28233089 
H      31.19911469      14.81665751      18.36657098 
H      30.86669539      13.48302713      19.52970169 
H      31.17023843      15.14071527      20.13578709 
H      28.74479446      13.70576079      26.59583420 
H      28.40719749      14.58470984      28.12821614 
H      29.14245100      15.45406760      26.74355951 
H      27.84375168      23.04005488      30.08438645 
H      28.47449490      21.94060631      28.82014654 
H      27.61850645      21.26450453      30.24999556 
H      23.85438857      24.23852195      31.72661307 
H      25.34395218      25.23105558      31.88138635 
H      25.30981918      23.80424540      30.78307030 
H      28.96043358      30.60823814      21.20870875 
H      28.22573035      29.21919336      22.08316797 
H      27.27755206      30.70964673      21.81496664 
H      31.57927665      21.45919261      13.04362647 
H      30.67572863      22.09960448      14.45695804 
H      30.19135457      22.56550294      12.80508347 
H      28.15742679      10.69033915      17.65172443 
H      29.21393893      10.07780463      18.96564607 
H      29.10289624      11.84336079      18.63936085 
H      24.87887119      12.28109175      29.23572237 
H      26.02423599      13.03965658      30.38513124 
H      26.09043305      13.44714610      28.63551165 
H      24.50657824      21.30090442      32.89692011 
H      24.67096301      19.76274760      32.00438140 
H      23.54170801      19.87904908      33.39449470 
H      27.15480926      30.44388223      24.96635466 
H      26.59866727      29.21238534      26.13979758 
H      26.00338960      30.90729755      26.25882597 
H      29.79820271      27.00854340      13.90260389 
H      30.51752461      25.37313152      14.01948711 
H      29.97125288      26.20977666      15.50329414 
H      29.83565903      13.52165184      13.66906304 
H      30.02650175      12.91460463      15.34206001 
H      30.10681023      14.67406878      15.02117885 
H      26.00299148       9.35851923      25.83591941 
H      26.35621247      10.63182043      27.04439369 
H      26.83164563      10.87228896      25.33661553 
H      18.28416392      16.44335366      31.70848978 
H      18.47158885      18.21290323      31.52433450 
H      19.44214042      17.32788836      32.74436217 
H      19.42867851      29.56458751      27.68451942 
H      20.14003139      30.17373381      26.15618606 
H      20.91236240      30.57003933      27.73030370 
H      25.63097465      29.73546342      13.86280025 
H      23.95974192      30.00336229      14.44650905 
H      24.35227859      28.52103934      13.52349851 
H      25.41694672      16.86423181      10.02815680 
H      25.17263362      15.42776580      11.06719617 
H      26.78600968      15.75686981      10.35411529 
H      22.05044987       8.34076469      20.59182327 
H      21.59293919       8.90047999      22.23016983 
H      23.05897075       7.88901527      22.00151181 
H      21.61223284       8.21485997      24.90466734 
H      21.14438303       8.33566894      26.62725336 
H      22.47559258       9.35280453      25.98069894 
H      19.85573127      11.80179310      30.67191662 
H      18.54276481      12.54604097      29.70432396 
H      19.43121038      13.52321485      30.92264338 
H      18.82179966      20.13408637      33.17428658 
H      18.83552334      21.86925767      33.60384896 
H      20.21419470      21.15662099      32.70255287 
H      19.52029866      27.89985204      30.40188989 
H      19.34585262      26.89982172      31.87391758 
H      18.17222447      26.72173560      30.53104955 
H      22.02663782      33.15243989      23.44672316 
H      22.96390763      31.74244891      24.04118549 
H      21.45617200      32.22920601      24.86827577 
H      23.92158623      31.63973952      16.89219825 
H      23.77462025      32.81176673      18.23729501 
H      22.33112436      31.89177890      17.69542966 
H      26.33313750      26.52092961      10.25989780 
H      26.88778150      26.29763258      11.95307946 
H      25.81566301      27.66607396      11.53267681 
H      26.78039418      21.13741559       8.95265837 
H      25.04472874      20.82516711       9.28543523 
H      26.26892903      19.53589065       9.56842691 
H      25.75803715      12.76557176      11.37226059 
H      25.70883241      11.13674851      12.10987106 
H      26.54855545      12.48188657      12.95244741 
H      24.51433546       8.23242676      16.30320029 
H      22.84937217       8.86013145      16.52344015 
H      23.76745170       8.21981676      17.92803062 
H       9.04116173      23.72448306      14.36182007 
H       9.60353758      23.65878003      16.06834597 
H       9.06409133      22.16842117      15.24175422 
H       9.51190670      19.19737884      12.64650909 
H      10.40113480      20.54487529      13.43914829 
H       9.28299548      19.52460778      14.38860452 
H       8.39251426      15.98353426      16.22605758 
H       9.76042392      16.89437580      15.48606458 
H       8.60352667      17.72786386      16.56307248 
H       8.16305727      19.49095668      18.79096608 
H       7.20363215      18.84899021      20.16184634 
H       8.57133165      17.89337323      19.48533268 
H       8.21713931      22.13004570      18.02191829 
H       7.52364610      23.45962458      18.99468392 
H       8.39239139      22.11225815      19.80086726 
H      12.40072003      28.71764902      12.10877186 
H      11.02246863      28.03821498      13.02856210 
H      11.79547172      27.07427208      11.73464921 
H       7.76867464      26.59469584      22.75912228 
H       8.56912362      27.67006911      21.57467126 
H       8.65797811      28.04206902      23.32476346 
H       7.21851729      16.51320858      24.62008361 
H       7.45623826      18.11766106      25.38319020 
H       7.82437302      16.62480707      26.30377419 
H      10.07437361      11.34131064      16.03897507 
H       9.95386475      11.28106174      17.82382445 
H      10.97751980      10.09632995      16.95701959 
H      13.67644383      17.47511680       7.97098111 
H      12.37186841      18.51830362       8.61633952 
H      12.54965702      16.84045558       9.21021111 
H      11.45998968      27.35645899      16.28526556 
H      10.75538578      27.58608492      17.92258425 
H      10.76851225      25.95816847      17.18077206 
H       9.21626500      23.46192478      23.77791321 
H       8.91762224      21.80327400      24.41277631 
H       9.10833375      22.06207097      22.65164654 
H       9.81411561      14.02744662      20.70118552 
H       9.76630436      15.80460218      20.49935280 
H       9.49684128      15.08611174      22.12359938 
H      12.29157269      15.00414003      12.84388179 
H      11.73445434      15.66592029      14.41018766 
H      11.97121442      13.89889453      14.22888453 
H      13.43697486      21.34605747      10.66764552 
H      13.24159350      23.09587359      11.04673025 
H      12.53959181      21.86279999      12.14172658 
H      15.57540701      25.60477724       9.17751927 
H      15.50767932      24.08942634      10.14333913 
H      16.99790381      24.51342254       9.25616885 
H      13.72826231      30.63336455      19.60065802 
H      12.07706656      30.64831571      20.30848640 
H      12.59382624      29.29737869      19.23204701 
H      10.93880925      22.28717060      28.35669741 
H       9.50904379      21.20992913      28.22872940 
H      10.24463097      21.92450791      26.75128681 
H      11.13595930      10.66982204      22.26387714 
H      11.54216534      12.40827050      22.46923402 
H      12.21498153      11.19494718      23.59368036 
H      15.05211428      13.05590502      10.46024582 
H      14.77911403      13.52500375      12.18115663 
H      16.06751906      12.35375407      11.76514164 
H      17.38858927      19.84872303       7.48932435 
H      16.35442948      21.21214107       8.00914521 
H      16.24553079      19.64359044       8.85588113 
H      15.02158523      30.98415329      14.79170769 
H      13.80413626      30.60218205      16.04666304 
H      14.30058375      29.34327128      14.88026951 
H      10.31200287      25.45672329      26.87998916 
H      10.88405134      26.25985523      25.39012072 
H      11.06059577      27.07813685      26.97564912 
H      10.80452921      13.32735894      25.60269041 
H      10.85591419      15.06962630      26.00827827 
H      11.02689660      13.83814130      27.30661516 
H      14.32098749      10.54544898      14.26167102 
H      14.10615628      10.74784162      16.02149464 
H      14.84576817       9.24486887      15.37699871 
H      21.61698576      17.38823346       8.15922769 
H      22.79749376      16.59978700       9.25060087 
H      22.48132445      18.35456043       9.39908385 
H      19.84927263      30.65017424      13.40949088 
H      21.39139405      29.74006166      13.40492761 
H      20.60726595      30.15783468      14.96019046 
H      17.00165776      29.94484751      26.44192550 
H      16.50571241      28.45950332      27.30905218 
H      15.29907933      29.73850047      26.95785106 
H      14.35724325      15.87823552      30.72709528 
H      15.73027367      16.99646887      30.99419587 
H      15.94219031      15.55934733      29.94919609 
H      18.35386440       7.77243179      18.65831905 
H      19.35467758       8.10494812      20.10169447 
H      19.70922131       8.94176483      18.56222307 
H      19.83716079       8.34919797      14.34754214 
H      18.51750796       9.37109824      15.01012806 
H      19.42909864       8.26893334      16.08807887 
H      21.54509840      13.72908945       9.93246993 
H      21.10763477      11.99669618      10.08161440 
H      22.44845343      12.66794490      11.07102292 
H      21.91078736      21.95947201       7.30245604 
H      20.59514815      21.12051052       8.19649066 
H      22.06492631      20.22061149       7.69672732 
H      21.27924036      26.86979686       9.05036101 
H      22.49396212      26.75720439      10.37076667 
H      21.07479582      27.84811509      10.53771558 
H      19.30824023      32.20875639      15.89695580 
H      18.70473249      33.10641213      17.32084354 
H      17.82087765      31.65892745      16.72944249 
H      17.01410811      32.87402930      22.33339796 
H      18.44554665      32.00395266      22.97787632 
H      16.83630956      31.78861781      23.74574494 
H      15.15561993      27.69570043      29.36420600 
H      14.47522558      26.54432207      30.55252958 
H      13.97570367      26.45309048      28.82817868 
H      14.33383757      19.81161633      31.53219820 
H      13.94019269      21.50303507      31.96677464 
H      15.65206035      21.02311740      31.69897721 
H      15.16905111      11.15494694      28.72479532 
H      14.36408853      12.52738299      27.88591597 
H      15.19315114      12.79194279      29.45121646 
H      17.44022387       8.45238589      22.68617562 
H      16.54686221       8.23312692      24.22751086 
H      18.21224092       8.91814629      24.24763867 
