646
Properties=species:S:1:pos:R:3 i=90 optimized=T E=-10428.2814339083 pbc="F F F" jobid=246_80-Ag-89_8-000001-PBE
Ag      21.84164259      20.18478559      20.88506594 
Ag      24.67403210      20.19837831      21.78595192 
Ag      20.44469456      22.68597309      20.43683535 
Ag      19.71597321      20.94901092      22.72602996 
Ag      20.01136932      18.13919178      21.84873788 
Ag      21.12121630      23.49457724      23.16071488 
Ag      20.37309267      21.73883329      25.42427108 
Ag      20.68360267      18.94412821      24.60259777 
Ag      20.93900282      16.13397376      23.70087533 
Ag      21.86165889      16.09680068      20.91495752 
Ag      22.75110427      16.10260986      18.07962544 
Ag      23.03286343      18.89453427      17.19721135 
Ag      23.26270758      21.69565408      16.33739816 
Ag      22.58339389      23.45285104      18.57164772 
Ag      21.82951949      25.19039218      20.87674797 
Ag      23.29104130      22.69196937      21.33516531 
Ag      22.57146294      20.97433333      23.62017639 
Ag      22.84986158      18.17732599      22.76728681 
Ag      23.73933335      18.15107481      19.96619831 
Ag      24.01996177      20.94654852      19.07888280 
Ag      20.91176378      14.00768806      19.01795983 
Ag      21.84165683      14.01076662      16.20622510 
Ag      22.11996607      16.83534792      15.29868917 
Ag      22.35274301      19.68998172      14.38720775 
Ag      22.65135787      22.51648549      13.53968876 
Ag      21.91960652      24.27488780      15.82595723 
Ag      21.14642786      26.05786867      18.13252926 
Ag      20.43131940      27.79329736      20.43659484 
Au      25.35231994      22.46838103      14.54122338 
Ag      24.73882199      24.27703876      16.71999903 
Au      23.95671633      25.94610700      19.00639656 
Ag      23.18093744      27.69980621      21.29020852 
Ag      22.54590733      26.07651537      23.60195938 
Ag      21.78043627      24.29560327      25.83875685 
Ag      21.02357990      22.54075409      28.10998295 
Ag      21.38222152      19.74282481      27.39001280 
Ag      21.61302853      16.94809962      26.45647458 
Ag      21.85317818      14.13649811      25.55309000 
Ag      22.82269936      14.02911913      22.81468880 
Ag      23.69281985      14.07986001      19.98408246 
Ag      24.57554594      14.06410968      17.13381318 
Au      24.92847493      16.82485777      16.22353439 
Ag      25.12556322      19.62717557      15.36093113 
Ag      23.55287899      18.96790355      25.55199780 
Ag      23.72728372      16.17704596      24.62284970 
Ag      24.73594457      16.09624636      21.85864484 
Ag      25.52588905      16.10081428      19.02598931 
Ag      25.91036813      18.89293731      18.12770226 
Ag      26.07707541      21.69642994      17.23475167 
Ag      25.48481199      23.48732164      19.49073314 
Ag      24.64411863      25.20685361      21.72715427 
Ag      24.01341396      23.53677480      24.07028003 
Ag      23.18301611      21.80464134      26.30093563 
Ag      26.14230329      22.71997408      22.23401284 
Ag      25.40444237      20.99492968      24.53227485 
Ag      25.69168872      18.18160551      23.68376139 
Ag      26.59191328      18.15217448      20.87497272 
Ag      26.88576274      20.97309642      19.97651049 
Ag      27.51715889      20.20718973      22.70527259 
Ag      27.48340734      15.33860506      21.24359190 
Ag      28.37990404      17.40416647      18.68774708 
Au      28.58775235      20.02424523      17.77509729 
Ag      28.28770860      23.26479777      18.79845481 
Ag      27.59075299      24.99430604      20.89385728 
Ag      26.57436850      24.88233065      24.14032097 
Ag      25.81303741      23.32599490      26.36927723 
Ag      25.58150252      20.08077897      27.28387605 
Ag      25.78558159      17.37141826      26.52624864 
Ag      26.66696552      15.44420956      23.93890764 
Ag      28.47285631      17.53977718      22.97256407 
Ag      29.25637070      19.42965636      20.60241127 
Ag      28.91220576      22.39636154      21.53575100 
Ag      27.94743166      22.34301464      24.52958483 
Ag      27.69632367      19.34482829      25.40944055 
Ag      25.53104145      13.38452679      22.19002401 
Ag      26.35294595      13.34925862      19.30999174 
Ag      27.29243565      15.16966085      16.96652522 
Au      27.52633429      17.99293071      15.93123786 
Ag      27.67045858      20.82318790      14.94842795 
Ag      27.53468715      23.80454388      15.93669568 
Ag      26.77266970      25.66922791      18.16138692 
Ag      25.91988775      27.46647818      20.38699850 
Ag      25.18305547      27.42411902      23.41146606 
Ag      24.33825980      25.77761717      25.80440989 
Ag      23.47674561      24.05915152      28.09768953 
Ag      23.40554834      21.10595901      29.05347926 
Ag      23.59810383      18.17633929      28.30139129 
Ag      23.75124919      15.33718727      27.38221428 
Ag      24.67374144      13.52379605      25.07114007 
Au      24.25498493      11.71161431      15.27563865 
Ag      24.00582839      14.86003690      14.35383971 
Ag      24.17918766      17.63330001      13.45677616 
Ag      24.49637250      20.42677457      12.61247624 
Ag      25.35004956      23.35850237      11.64241071 
Ag      24.07918707      25.05899125      14.01938332 
Ag      23.25762147      26.75662810      16.27229457 
Ag      22.60666041      28.50032555      18.54897333 
Ag      22.25810309      30.56261158      20.96787249 
Ag      21.12045911      28.56635661      23.17657820 
Ag      20.34637645      26.80107677      25.39234430 
Ag      19.66371381      25.08787107      27.69040445 
Ag      19.31358074      23.45919976      30.42277470 
Ag      19.24379843      20.48103259      29.20825520 
Ag      19.48692888      17.70421474      28.30333705 
Ag      19.76413180      14.89671726      27.44581625 
Ag      20.47257584      11.79609540      26.86699820 
Ag      20.98526531      11.98416718      23.72874092 
Ag      21.83797483      12.02424928      20.92975905 
Ag      22.76128396      12.00640245      18.15619647 
Ag      29.48881461      14.49784367      23.31212377 
Ag      31.15096630      18.51821413      18.15259222 
Ag      30.50869964      24.79007444      20.23110817 
Ag      28.44122844      24.72785030      26.56624954 
Ag      27.80777771      18.38337490      28.47644456 
Ag      28.92364742      27.47499240      19.01644082 
Au      30.19724213      18.53833315      14.80082598 
Ag      28.02033774      11.91547480      21.73461804 
Au      25.30597914      16.65250916      30.11949228 
Ag      25.92991420      26.18072389      28.24064328 
Ag      26.34596821      26.69464608      15.32358593 
Ag      23.08992203      28.52771149      25.53496417 
Ag      21.56807416      18.90027436      30.44350749 
Ag      23.88012653      11.08262581      23.22873116 
Ag      26.88230766      15.88886163      13.89962933 
S      29.52120675      22.57612608      26.46791842 
S      29.44521833      18.11436555      26.73126911 
S      30.73387932      16.47653277      22.74680914 
S      31.64916921      19.93828477      20.03693368 
S      30.86350087      23.73123994      22.36385308 
S      27.82100447      27.01618024      27.00102034 
S      30.69361474      26.05591367      18.19155816 
S      31.24846247      17.00387546      16.26571064 
S      28.77586821      12.29703859      23.98948874 
S      26.64309096      18.54468648      30.59327628 
S      27.77302998      26.64190468      22.81686345 
S      29.57414319      22.17406499      16.93074291 
S      28.92694226      15.01846361      19.17126231 
S      26.59440691      14.95921808      26.41411083 
S      25.92479527      22.16289725      28.63701563 
S      24.10345007      25.82041177      29.74432893 
S      27.40773087      29.25996083      19.51623004 
S      29.27217488      19.99036923      13.20513210 
S      27.33328130      11.07691965      19.60445136 
S      23.94220550      14.76810672      29.82308665 
S      22.53086641      20.92643154      31.36907174 
S      24.80161405      29.71116619      24.29223386 
S      28.08428315      25.46119115      14.17174119 
S      27.80877027      13.87236180      14.91153047 
S      24.36197550      11.11713580      25.60786879 
S      20.34162521      16.80501698      30.45751850 
S      21.31400701      28.25143014      27.16095611 
S      24.89126089      28.57165876      15.81145070 
S      26.18235617      17.28536679      12.03154465 
S      23.38961772      10.08193657      21.07230009 
S      20.16182960      10.11702100      25.17280328 
S      20.90099785      13.14031409      28.80475057 
S      18.23849138      21.47948473      31.26611229 
S      20.46639008      25.52104998      30.00803067 
S      20.85895792      31.03448911      22.87307321 
S      23.91893422      30.50257634      19.23563583 
S      24.51252170      25.61952286      11.62535623 
S      26.45109259      21.25175137      11.30188043 
S      24.05427238      12.67766650      13.13352337 
S      24.59229792      10.52944994      17.27872632 
C      31.23663737      22.90059800      25.90050996 
C      30.83984914      19.21942937      27.18607108 
C      31.78445705      16.84514730      24.20678241 
C      32.82278335      19.01180148      21.10132054 
C      32.42675088      22.78178759      22.20300041 
C      28.98084049      27.63254505      28.29612404 
C      32.22334660      27.07345711      18.35604798 
C      33.00510570      16.97815801      15.71646564 
C      30.31179826      11.28572443      24.13391924 
C      27.82162567      17.95003077      31.87750286 
C      29.42137371      27.06365098      23.52106715 
C      31.39468280      22.35812105      17.12034158 
C      30.74247643      14.75512498      19.33836902 
C      28.22498311      14.48130981      27.12506332 
C      27.48119339      22.14172534      29.62033506 
C      24.75814425      24.82277463      31.14143781 
C      28.01647636      30.04233017      21.06314533 
C      30.44450425      21.39997759      13.09370166 
C      28.79747491      11.17407246      18.49744690 
C      25.09695866      13.34127949      29.74970082 
C      23.86907246      20.41648487      32.51939320 
C      26.12432639      30.14959475      25.48975704 
C      29.66270223      26.33486613      14.51539772 
C      29.61933567      13.92241737      14.60577361 
C      26.00220041      10.31871854      25.82882750 
C      19.00342245      17.13328724      31.67845398 
C      20.39905851      29.84372498      27.03275218 
C      24.47203920      29.20531522      14.13510961 
C      25.67430950      16.06945815      10.74722022 
C      22.31763174       8.65369633      21.51942617 
C      21.41161490       8.81698460      25.53351878 
C      19.74571596      12.58543645      30.11932832 
C      19.11175701      21.07651386      32.83339419 
C      19.45241579      26.87193664      30.72669883 
C      21.89829930      32.07409901      23.97848572 
C      23.56385917      31.87209700      18.06652926 
C      25.97587309      26.69614821      11.34317850 
C      26.22166570      20.78188000       9.54337703 
C      25.65579185      12.32723073      12.30353114 
C      23.94232343       8.83860232      16.98832586 
Ag      19.04623163      20.16458402      19.98829940 
Ag      16.21364953      20.14859707      19.08527963 
Ag      21.16537238      20.95164367      18.15145645 
Ag      20.90951396      18.13163007      19.02688126 
Ag      19.74387726      23.48134544      17.71104886 
Ag      20.51054024      21.73599687      15.44582036 
Ag      20.21366920      18.94048921      16.28164373 
Ag      19.98970414      16.12044832      17.18739743 
Ag      19.04956934      16.09451323      19.96727875 
Ag      18.19811264      16.10088041      22.77512635 
Ag      17.86739897      18.89407127      23.66690989 
Ag      17.60597774      21.68740969      24.54934761 
Ag      18.28378550      23.44681888      22.29420809 
Au      19.06481165      25.17403659      20.01075414 
Ag      17.58523313      22.66198878      19.54452797 
Ag      18.31230235      20.95675374      17.25814776 
Ag      18.05801941      18.15181742      18.09863253 
Ag      17.15353817      18.13107881      20.90691785 
Ag      16.86034016      20.91070016      21.79649682 
Ag      20.01702304      13.99725876      21.88348009 
Ag      19.11788232      14.02198805      24.68839018 
Ag      18.82207515      16.85783221      25.59350338 
Ag      18.56276238      19.70326005      26.49897567 
Ag      18.25548674      22.50197450      27.32860512 
Ag      18.95536125      24.27223535      25.02946286 
Ag      19.72081889      26.05725044      22.72729857 
Ag      15.51173096      22.42113090      26.39073192 
Ag      16.11469680      24.21895828      24.17046914 
Ag      16.89639529      25.93693033      21.87466656 
Ag      17.68294359      27.67863618      19.60143369 
Ag      18.31910807      26.04863855      17.27328532 
Ag      19.08828242      24.27048262      15.01858609 
Ag      19.92290487      22.54114862      12.74509870 
Ag      19.56369324      19.71300363      13.52352015 
Ag      19.30493153      16.92629315      14.44569906 
Ag      19.11276764      14.10614609      15.34956287 
Ag      18.12716667      14.01379345      18.10379413 
Ag      17.24489537      14.04732826      20.89272766 
Ag      16.42410647      14.03473901      23.72302356 
Au      16.06915920      16.80658577      24.65751084 
Ag      15.78272548      19.60848131      25.51756985 
Ag      17.32189399      18.91706604      15.29397109 
Ag      17.17613126      16.15018232      16.26551748 
Ag      16.15880427      16.07188284      19.01924624 
Ag      15.39149489      16.07099220      21.81931527 
Ag      14.95940069      18.82222568      22.75701009 
Ag      14.79754292      21.62877631      23.66894099 
Au      15.40572700      23.43418157      21.41668204 
Ag      16.23340993      25.17167910      19.17093690 
Ag      16.85562203      23.49737645      16.79299094 
Ag      17.70257201      21.77115496      14.58073287 
Ag      14.73920121      22.67095762      18.66064345 
Au      15.48270823      20.95921036      16.33602207 
Ag      15.20653602      18.13063269      17.16545624 
Ag      14.28824586      18.09396200      20.00154156 
Ag      13.99342442      20.89847908      20.91701523 
Ag      13.36892719      20.15705683      18.17554603 
Ag      13.38492539      15.27615649      19.61688572 
Ag      12.47108808      17.28803301      22.21235489 
Au      12.26329327      19.89206856      23.14708620 
Ag      12.60300255      23.18776410      22.07388495 
Ag      13.31939202      24.92838710      19.98373592 
Ag      14.30720122      24.86139641      16.76372314 
Ag      15.01971078      23.29467882      14.49828648 
Ag      15.33321233      20.07387410      13.50853782 
Ag      15.10170510      17.34283058      14.23537381 
Ag      14.26142276      15.38115176      16.91785901 
Ag      12.44950728      17.48472383      17.86880137 
Ag      11.66517535      19.35507984      20.28034814 
Ag      11.95792104      22.33533027      19.34320405 
Ag      12.92609895      22.32351669      16.37448319 
Ag      13.25714311      19.37295635      15.44042093 
Ag      15.40185539      13.35188967      18.70260512 
Ag      14.57198417      13.31636447      21.58813983 
Au      13.78844149      15.08342833      23.86730502 
Au      13.43521729      17.87223915      24.97580553 
Ag      13.22210606      20.71965791      25.92014092 
Ag      13.29721196      23.68722823      24.94398210 
Ag      14.08867076      25.62162533      22.72385556 
Ag      14.92605602      27.42924696      20.47219486 
Ag      15.68860485      27.37975805      17.46654603 
Ag      16.53650075      25.72488650      15.06583174 
Ag      17.37066056      23.97547000      12.75260908 
Au      17.62015134      21.07330866      11.89381176 
Ag      17.37410916      18.15514235      12.53079512 
Ag      17.16662059      15.29353460      13.54069920 
Au      16.36822781      13.48741081      15.89263258 
Ag      16.82151476      11.65665909      25.56299525 
Au      16.92893048      14.82289264      26.51515952 
Ag      16.75442095      17.60792460      27.41614638 
Ag      16.42450476      20.39175553      28.27640394 
Ag      15.56199197      23.25689394      29.29965668 
Au      16.83006671      25.00337163      26.83517291 
Ag      17.57952609      26.73056931      24.59895096 
Ag      18.26060240      28.48608557      22.35548592 
Ag      18.61531813      30.54623195      19.88842068 
Ag      19.76595895      28.55136506      17.67741057 
Ag      20.49641892      26.78844071      15.45598017 
Ag      21.24175165      25.09990267      13.19798611 
Au      21.51564266      23.50552869      10.38889029 
Ag      21.67229727      20.39693689      11.66996053 
Ag      21.44244740      17.64649554      12.61435155 
Ag      21.16556375      14.85627783      13.46822026 
Ag      20.50189231      11.75902481      14.03916456 
Ag      19.96375006      11.96659816      17.18010978 
Ag      19.12224886      11.99612899      19.97713444 
Ag      18.17981493      11.97530276      22.74782863 
Ag      11.38355235      14.51701146      17.50795736 
Au       9.55803184      18.47314885      22.66951675 
Ag      10.41817058      24.82939135      20.78094948 
Ag      12.43206279      24.81936309      14.37329228 
Au      12.96469072      18.36625451      12.32335837 
Ag      11.99629854      27.52126581      21.98595276 
Ag      10.77375196      18.69842598      25.87531998 
Ag      12.86708861      11.95705660      19.12640540 
Au      15.61414327      16.52352577      10.83877757 
Ag      14.97562974      26.19769133      12.64722244 
Ag      14.51814440      26.57325086      25.55590112 
Ag      17.75795944      28.49354016      15.35954403 
Au      19.40288066      18.76404876      10.21803783 
Ag      17.07318231      10.99911433      17.65694056 
Au      13.94761042      15.78005511      27.18616933 
S      11.29053745      22.70896624      14.52451152 
S      11.46012094      18.22429261      14.12050659 
S      10.14393875      16.51346426      18.01708665 
S       9.26246143      19.89028859      20.81494931 
S      10.01274287      23.76278051      18.66657423 
S      13.12998143      27.08114131      13.92022369 
S      10.26465231      26.07805281      22.83561976 
S       9.55253441      17.06163545      24.55510552 
S      12.05971108      12.29599209      16.87900639 
S      14.25744799      18.40383870      10.34685021 
S      13.10751393      26.62611199      18.10673917 
S      11.28254340      22.10344854      23.89628359 
S      11.85526300      14.95373640      21.61247545 
S      14.23490871      14.97196847      14.43688059 
S      14.82840046      22.17934721      12.22930580 
S      16.76983990      25.76663281      11.12473519 
S      13.52723694      29.26527327      21.41747720 
S      11.52385440      20.14424944      27.64835394 
S      13.54524673      11.07420008      21.24579950 
S      16.96808960      14.63368415      11.12703457 
S      18.35014527      20.77560047       9.55326158 
S      16.10058038      29.69137074      16.66814479 
S      12.84726688      25.29392647      26.77402665 
S      13.07745195      13.96199306      25.94242705 
S      16.48417446      11.10588951      15.28712096 
S      20.55749523      16.72530764      10.45625634 
S      19.48916702      28.21567159      13.68271311 
S      15.86694404      28.50687463      24.95073659 
S      14.68711442      17.32952768      28.80540141 
S      17.66627215       9.98937747      19.77640597 
S      20.72858475      10.07486406      15.74395555 
S      20.08882265      13.08047770      12.07878017 
S      22.61966332      21.55714310       9.65553790 
S      20.40895461      25.52297573      10.86961984 
S      20.01840544      31.01633206      17.98969586 
S      16.96644708      30.48493118      21.62735022 
S      16.40956230      25.50939804      29.22962155 
S      14.45471142      21.15607901      29.60831363 
S      16.94588886      12.68786181      27.73863228 
S      16.38438382      10.43561504      23.54784452 
C       9.59810768      23.06085478      15.13877614 
C      10.08833950      19.36871701      13.70452104 
C       9.11778208      16.87846608      16.53975437 
C       8.09194543      19.01652740      19.70625616 
C       8.41950149      22.86766147      18.85014108 
C      11.97008568      27.73874348      12.64571326 
C       8.72516425      27.08695658      22.71321439 
C       7.82754094      17.15143954      25.19357387 
C      10.50690525      11.30239904      16.81562026 
C      13.11939095      17.78406017       9.04004669 
C      11.46190685      27.07765456      17.41464811 
C       9.46894797      22.34082318      23.70388657 
C      10.04178737      14.80084607      21.33429963 
C      12.57701661      14.61326409      13.72366417 
C      13.18714996      22.14568577      11.39868751 
C      16.03788856      24.79395386       9.74828512 
C      12.87337000      30.05538072      19.89228399 
C      10.42677555      21.61755673      27.63981606 
C      12.06157685      11.19051384      22.32481336 
C      15.79407452      13.22764956      11.26715370 
C      16.94990283      20.28650191       8.47653485 
C      14.75878974      30.18549472      15.51430807 
C      11.22425986      26.11811547      26.53260881 
C      11.25491400      14.04745002      26.10937029 
C      14.80461798      10.39487640      15.09429720 
C      21.94491560      16.89125316       9.26010964 
C      20.39143297      29.81796410      13.76551262 
C      16.29832448      29.22389712      26.59051129 
C      15.22549551      16.25743320      30.19921792 
C      18.79607845       8.61810081      19.29703132 
C      19.44552297       8.81360710      15.36407706 
C      21.25383539      12.50359235      10.78272012 
C      21.80400398      21.10424669       8.07296060 
C      21.41827697      26.85202902      10.10788130 
C      18.98800796      32.05844878      16.87851472 
C      17.31760108      31.87072379      22.77892127 
C      14.96774640      26.61266782      29.50872039 
C      14.68926647      20.68301636      31.36647984 
C      15.32184708      12.36645906      28.53572812 
C      17.09406454       8.75434129      23.73969013 
H      31.71237569      21.93425125      25.69307094 
H      31.78641839      23.41029534      26.69962211 
H      31.24132785      23.50994186      24.99012806 
H      31.54691478      19.23137366      26.34747937 
H      31.34033589      18.81881242      28.07459883 
H      30.48710049      20.23874360      27.37719970 
H      32.25469048      17.82271971      24.04409499 
H      32.56300718      16.07872315      24.29054379 
H      31.18580298      16.87828354      25.12362189 
H      33.77969958      18.91246991      20.57686029 
H      32.42681592      18.02247577      21.35532193 
H      32.97363901      19.58986875      22.02145452 
H      33.26563908      23.48384927      22.14045903 
H      32.40613693      22.13584298      21.31826898 
H      32.53855022      22.16239581      23.10134336 
H      29.94537313      27.84774676      27.82168889 
H      29.12393879      26.89998677      29.09544426 
H      28.56862330      28.55680844      28.71743951 
H      32.20383921      27.85294036      17.58546633 
H      33.09024342      26.42266123      18.19296155 
H      32.29819449      27.53865854      19.34298581 
H      33.05483808      16.49846257      14.73214743 
H      33.57539366      16.38583264      16.44186620 
H      33.42367391      17.98663360      15.65616961 
H      30.02708316      10.22781890      24.17153633 
H      30.81836834      11.55936325      25.06671378 
H      30.98812722      11.45132402      23.29056650 
H      28.56143902      18.74213180      32.04329114 
H      28.32946956      17.03299194      31.56600468 
H      27.26522297      17.76878564      32.80427064 
H      29.89416897      27.80993384      22.87175909 
H      30.04730607      26.16557850      23.56852508 
H      29.26796637      27.47420056      24.52577726 
H      31.88572623      21.76362393      16.34106532 
H      31.70821354      22.00553807      18.10927433 
H      31.63365616      23.42172862      17.00343632 
H      31.21259436      14.98402264      18.37525737 
H      30.91486957      13.70628062      19.60707872 
H      31.14119416      15.40723463      20.12348573 
H      28.55187197      13.55453396      26.63962956 
H      28.10166891      14.32688202      28.20322667 
H      28.95203112      15.28177906      26.94705962 
H      27.59198454      23.11579921      30.11143229 
H      28.33745535      21.96216734      28.96078893 
H      27.40197115      21.34647450      30.37020762 
H      23.89640059      24.49916289      31.73840599 
H      25.41864565      25.44537863      31.75479665 
H      25.29539344      23.93699518      30.78499677 
H      28.94519831      30.58493451      20.85555108 
H      28.17927039      29.29855439      21.85086273 
H      27.24338143      30.74685258      21.39414234 
H      31.38093913      21.06163028      12.63708905 
H      30.63878958      21.84220906      14.07648388 
H      29.96773752      22.14997339      12.44992086 
H      28.44552021      10.96707173      17.47913806 
H      29.52978819      10.41606592      18.79616815 
H      29.25384491      12.16953182      18.51870942 
H      24.48796051      12.46700665      29.48671714 
H      25.55670697      13.19061415      30.73235961 
H      25.86737239      13.48593930      28.98500188 
H      24.38602761      21.32487135      32.85154649 
H      24.58793195      19.75063320      32.02960867 
H      23.42500447      19.91311714      33.38546851 
H      26.94605929      30.60365822      24.92286790 
H      26.49806123      29.26637045      26.01962729 
H      25.73192799      30.87782516      26.20821257 
H      29.62181348      27.33929343      14.07981051 
H      30.46665859      25.76328567      14.03599552 
H      29.86167555      26.40128971      15.59069312 
H      29.80521050      13.78086434      13.53509940 
H      30.07641297      13.09797175      15.16619306 
H      30.05812314      14.87048756      14.93566091 
H      25.92008753       9.25432968      25.58208671 
H      26.28483879      10.42719453      26.88288808 
H      26.76697843      10.78933205      25.20086842 
H      18.28124278      16.31043635      31.61785451 
H      18.49123942      18.08041319      31.47499745 
H      19.44058117      17.15843269      32.68323225 
H      19.46503895      29.74200606      27.59808074 
H      20.16689641      30.09651831      25.99202969 
H      21.00878382      30.63766542      27.47903573 
H      25.36207777      29.67543658      13.70140973 
H      23.68313471      29.95840369      14.24818650 
H      24.11768736      28.40485865      13.47606888 
H      25.21378440      16.62119634       9.91900496 
H      24.95690946      15.34016589      11.13901049 
H      26.56641244      15.54773886      10.38193013 
H      21.89735106       8.24420330      20.59309531 
H      21.50119971       8.95341365      22.18575612 
H      22.93189835       7.88901415      22.00848690 
H      21.44774929       8.13040468      24.67957487 
H      21.09119796       8.26873252      26.42658847 
H      22.40229191       9.25609093      25.69608954 
H      20.10325837      11.63258058      30.52572118 
H      18.72805164      12.46823194      29.73096233 
H      19.76138099      13.34992958      30.90562065 
H      18.79365902      20.07835588      33.15665817 
H      18.81903475      21.81347335      33.58973543 
H      20.19856794      21.08942024      32.69452420 
H      19.82373025      27.81359083      30.30432765 
H      19.59350591      26.87685865      31.81354415 
H      18.39062216      26.74682120      30.48744837 
H      21.99493479      33.06762199      23.52633066 
H      22.88890171      31.62987223      24.12621621 
H      21.38772893      32.16349860      24.94462298 
H      24.12562303      31.66491194      17.14765299 
H      23.91600137      32.81044937      18.50992526 
H      22.49301595      31.94086155      17.84498815 
H      26.27715192      26.59335865      10.29446897 
H      26.80738295      26.42155994      12.00142856 
H      25.68287216      27.73490801      11.53577911 
H      26.92909390      21.35282556       8.93106183 
H      25.19743263      20.97823275       9.20762435 
H      26.44513032      19.71132474       9.45986296 
H      25.66500371      12.87692625      11.35488466 
H      25.71205998      11.25150046      12.10337537 
H      26.49926867      12.64466541      12.92699416 
H      24.62750687       8.30471940      16.32041704 
H      22.93508220       8.86531340      16.55777480 
H      23.92242142       8.34384723      17.96729799 
H       9.04594228      23.60868640      14.36702636 
H       9.62728510      23.64023478      16.06811823 
H       9.10156680      22.10061771      15.32548366 
H       9.57558167      19.00275965      12.80843650 
H      10.45565162      20.38914021      13.55040618 
H       9.39313950      19.35545933      14.55316924 
H       8.30676156      16.14384763      16.48048206 
H       9.71473228      16.85181290      15.62237040 
H       8.68886322      17.88037491      16.66463211 
H       7.98515165      19.62744313      18.80120240 
H       7.12030293      18.93179763      20.20497312 
H       8.47254466      18.02569260      19.43557594 
H       8.27312330      22.25313089      17.95333644 
H       7.60603975      23.59810547      18.92362922 
H       8.42604346      22.22151481      19.73425170 
H      12.40288514      28.65340279      12.22403575 
H      11.01887765      27.97876936      13.13483709 
H      11.79484539      27.01569409      11.84412744 
H       7.86622568      26.42850893      22.88733530 
H       8.62721192      27.56130022      21.73268594 
H       8.75496787      27.85880511      23.49106808 
H       7.16840794      16.61145088      24.50438691 
H       7.48838416      18.18617718      25.29391154 
H       7.81101298      16.66323986      26.17537738 
H       9.97308044      11.55597973      15.89239963 
H       9.86048203      11.50119825      17.67510840 
H      10.77624254      10.23991745      16.79972014 
H      13.70961559      17.62063244       8.13073244 
H      12.36392050      18.55690730       8.85692285 
H      12.63316507      16.85205296       9.34106378 
H      11.61601997      27.48960331      16.41055709 
H      11.00221518      27.82799788      18.06856214 
H      10.82394395      26.18796121      17.36852206 
H       9.26281321      23.41360592      23.79833037 
H       8.95958710      21.77884399      24.49547458 
H       9.14462551      21.97466457      22.72378774 
H       9.82865725      13.77105939      21.02326861 
H       9.71070079      15.49668635      20.55606263 
H       9.53378489      15.02483509      22.27941369 
H      12.67492974      14.54174395      12.63403753 
H      11.87172968      15.41251908      13.97538023 
H      12.23110224      13.65941983      14.13922358 
H      13.21818309      21.37427431      10.62049978 
H      13.00732996      23.12781150      10.94486165 
H      12.39125569      21.92328746      12.11690802 
H      15.37235608      25.43695525       9.16200314 
H      15.48956391      23.92256751      10.12507614 
H      16.86711987      24.45205951       9.11656308 
H      13.64610793      30.74570913      19.53157286 
H      11.96302409      30.61524950      20.13287945 
H      12.66731476      29.31461447      19.11213580 
H      10.88608706      22.36996208      28.29308509 
H       9.44298610      21.33912645      28.03381744 
H      10.32337289      22.03858616      26.63378926 
H      11.31157171      10.46516060      21.99098244 
H      11.64040208      12.20255073      22.31630879 
H      12.38256400      10.94369587      23.34437628 
H      15.31031148      13.05610657      10.29968616 
H      15.04481037      13.40915406      12.04582590 
H      16.39565819      12.35211955      11.54273436 
H      17.34909599      19.84232258       7.55780457 
H      16.39626746      21.20206624       8.23465334 
H      16.28423299      19.58051189       8.98332300 
H      15.14243501      30.94366794      14.82244984 
H      13.94784700      30.61639229      16.11383593 
H      14.37441136      29.32692925      14.95217665 
H      10.45644599      25.48370793      26.99172963 
H      10.99457894      26.25038534      25.46936012 
H      11.23968377      27.09169892      27.03517922 
H      10.83361790      13.26855451      25.46214935 
H      10.87037198      15.02518978      25.80113729 
H      10.98805804      13.84575884      27.15288009 
H      14.46506928      10.60748797      14.07344065 
H      14.09617936      10.83060186      15.80712591 
H      14.86695191       9.31050020      15.24187121 
H      21.54356278      16.88248383       8.24066743 
H      22.59984409      16.02315007       9.40351978 
H      22.51685283      17.80953564       9.43060791 
H      19.75582204      30.60479775      13.34351995 
H      21.30166887      29.72373552      13.16135289 
H      20.66498400      30.07610958      14.79468236 
H      17.05375700      30.00258342      26.43075193 
H      16.69963654      28.46496080      27.27066181 
H      15.40019212      29.67502510      27.02791231 
H      14.34723545      15.76789946      30.63488437 
H      15.69035871      16.90897009      30.94941288 
H      15.95050359      15.50506620      29.87161681 
H      18.21039590       7.83226956      18.80630295 
H      19.24486509       8.21653418      20.21341782 
H      19.59044426       8.96236905      18.62517405 
H      19.77894460       8.24026105      14.49160739 
H      18.47527434       9.27820940      15.15853300 
H      19.35494994       8.14234562      16.22605317 
H      21.24727545      13.25130293       9.98039879 
H      20.89701494      11.54478421      10.38968878 
H      22.26802800      12.38800424      11.18046414 
H      22.09675212      21.83448744       7.31021791 
H      20.71487417      21.08382892       8.18132053 
H      22.16468443      20.10944575       7.78548383 
H      21.28323583      26.82086723       9.02095018 
H      22.47853560      26.74381257      10.36284261 
H      21.02858232      27.79942767      10.50039766 
H      19.50495940      32.14720009      15.91576764 
H      18.88954806      33.05185927      17.33047930 
H      17.99816292      31.61404479      16.72608688 
H      16.96891992      32.80288857      22.32000133 
H      18.38712632      31.94159398      23.00617706 
H      16.74890404      31.67852511      23.69677840 
H      15.26281461      27.63835274      29.25833130 
H      14.70552305      26.55765080      30.57175536 
H      14.11392833      26.31098044      28.89198335 
H      14.42032546      19.62346629      31.45612085 
H      14.01158870      21.28349210      31.98403381 
H      15.72486581      20.83718796      31.68985321 
H      15.31646444      11.32159228      28.86787455 
H      14.49438476      12.54674581      27.84236293 
H      15.22270264      13.02810102      29.40394405 
H      17.17632130       8.32296368      22.73460711 
H      16.40705239       8.15045691      24.34342578 
H      18.08029684       8.78838295      24.21586007 
