646
Properties=species:S:1:pos:R:3 i=91 optimized=T E=-9963.7958808768 pbc="F F F" jobid=246_80-Ag-39_8-000005-PBE
Au      21.85535169      20.20574498      20.90581530 
Au      24.73443942      20.22047835      21.82610301 
Ag      20.43059636      22.72259431      20.43855867 
Ag      19.71479201      20.96387814      22.72051721 
Ag      19.99576089      18.17225996      21.83864864 
Au      21.15529139      23.50524763      23.16853155 
Au      20.41070020      21.74514425      25.41599621 
Ag      20.68805220      18.93883293      24.62066483 
Au      20.92378558      16.16976556      23.68505887 
Ag      21.87891070      16.10436236      20.93063630 
Au      22.67674355      16.13532589      18.10335903 
Au      23.04090765      18.90744305      17.19466511 
Au      23.30525176      21.74837640      16.28757999 
Au      22.57859415      23.48076883      18.56687384 
Au      21.80009548      25.19410427      20.87778411 
Au      23.36318648      22.71522984      21.32666942 
Ag      22.61614160      20.98753566      23.63320700 
Au      22.86804692      18.20240953      22.79245841 
Ag      23.76464853      18.16141101      19.98190300 
Ag      24.03931571      20.95102190      19.08723848 
Au      20.89149555      13.99490253      19.00067822 
Ag      21.77660230      14.03110772      16.15155737 
Ag      22.09798728      16.85286106      15.27780665 
Au      22.33926280      19.72159098      14.37005721 
Ag      22.71947025      22.60639629      13.50430345 
Au      21.98976572      24.34526894      15.82067743 
Ag      21.14898592      26.08695191      18.14742498 
Au      20.40290402      27.78969585      20.41207351 
Ag      25.43887527      22.50386756      14.46835819 
Au      24.83031007      24.27804149      16.71426116 
Au      23.95757821      25.96370341      18.98830073 
Au      23.10212607      27.76604361      21.29957402 
Ag      22.55312818      26.09735203      23.66865843 
Au      21.83884970      24.33908081      25.88955690 
Ag      20.97757195      22.59184814      28.18582440 
Au      21.34153919      19.71817849      27.39195175 
Ag      21.58667298      16.95127377      26.50796805 
Au      21.83920141      14.13463820      25.59719053 
Au      22.87705676      13.96645345      22.81556864 
Ag      23.66995227      14.03850773      20.01471906 
Au      24.46755144      14.08094313      17.10521982 
Ag      24.88403553      16.83207282      16.20836672 
Au      25.19180296      19.64779263      15.38508922 
Ag      23.59294799      18.97388330      25.59754705 
Au      23.72300619      16.17607556      24.64213407 
Au      24.77597388      16.07635009      21.86002860 
Au      25.52075110      16.08306448      19.05961186 
Au      25.95494198      18.86927860      18.16122793 
Au      26.13794602      21.66161066      17.24847298 
Ag      25.54939263      23.49259317      19.50887692 
Au      24.67202448      25.20692718      21.76926268 
Au      24.07165635      23.56278603      24.12744735 
Au      23.24315966      21.79325485      26.31420796 
Ag      26.25639204      22.78057176      22.27334679 
Ag      25.49637589      21.02958982      24.61277033 
Ag      25.70442537      18.16457091      23.72183697 
Ag      26.64734950      18.11803446      20.89654950 
Ag      26.93296576      20.95075268      19.98984669 
Au      27.57496098      20.22057574      22.71479775 
Ag      27.56209827      15.30461727      21.24673217 
Au      28.40959573      17.32037554      18.67826716 
Ag      28.64879684      19.95564493      17.74148974 
Ag      28.36992522      23.22429833      18.84248471 
Au      27.73428661      24.96382764      20.90707526 
Au      26.69873556      24.93169951      24.24555451 
Au      26.00047101      23.36598899      26.39764080 
Ag      25.70044140      20.07581745      27.42336066 
Au      25.82771100      17.40687400      26.65242087 
Ag      26.67537019      15.42681667      23.93353174 
Ag      28.51656116      17.54667085      23.03323055 
Ag      29.29483405      19.35288130      20.60491284 
Ag      29.04563132      22.34901751      21.54756239 
Ag      28.13221270      22.32402642      24.56169871 
Au      27.71321442      19.34017856      25.40282489 
Ag      25.58288844      13.33250854      22.17902492 
Ag      26.34360314      13.35914395      19.23047160 
Au      27.13843682      15.14802154      16.99014932 
Au      27.53211811      17.93003124      15.89752964 
Ag      27.75340580      20.76261967      14.96304582 
Ag      27.64291224      23.72948425      16.01270513 
Au      26.83642134      25.67447793      18.17423785 
Au      25.86515872      27.44692350      20.45242347 
Au      25.13445251      27.42909421      23.35667504 
Ag      24.41681270      25.87673391      25.86947084 
Ag      23.57833520      24.00331891      28.11731637 
Au      23.30493116      21.15934059      29.01080414 
Au      23.57507449      18.21401611      28.35949560 
Ag      23.74838719      15.35828935      27.40290903 
Ag      24.67161243      13.52431899      25.12507473 
Au      24.33912597      11.55735843      15.43711624 
Au      23.98501596      14.86337544      14.28082046 
Au      24.19267839      17.60686446      13.46388459 
Au      24.47163499      20.41634069      12.65977694 
Au      25.45947112      23.38419295      11.55327414 
Ag      24.21349732      25.17159575      14.04569090 
Ag      23.31318566      26.84027029      16.29267011 
Ag      22.58203726      28.56162057      18.54189674 
Au      22.60246266      30.70513096      20.90119640 
Au      21.09816282      28.58584255      23.30032961 
Au      20.35826934      26.85139484      25.44818596 
Au      19.63975556      25.12097587      27.68178729 
Au      19.44926854      23.61463460      30.60023687 
Au      19.25481101      20.42415641      29.26914460 
Ag      19.44691282      17.66852367      28.37551505 
Au      19.64403281      14.91512879      27.42042462 
Au      20.59461878      11.75501200      27.08229758 
Ag      21.03539589      11.94999121      23.80456279 
Ag      21.81096952      11.91655322      20.96119727 
Au      22.66725756      12.02889121      18.15247540 
Ag      29.51886004      14.54329356      23.40048045 
Ag      31.19490690      18.43338432      18.07877950 
Ag      30.62278753      24.80610057      20.09353643 
Ag      28.59472316      24.86039669      26.59301320 
Au      27.95541823      18.37485986      28.71482946 
Au      28.97349909      27.58546499      18.90284130 
Ag      30.16584857      18.72150747      14.81055474 
Au      28.05083909      11.84884075      21.77517089 
Au      25.25643416      16.52374426      30.13226934 
Au      25.93099095      26.43574837      28.34266629 
Au      26.57541151      26.74464425      15.23019023 
Au      23.25430656      28.72371414      25.77069584 
Au      21.60954982      18.81254680      30.70879207 
Ag      23.90794431      11.03056029      23.31238257 
Au      27.10760692      15.75009891      13.74358878 
S      29.81328150      22.79723941      26.36244232 
S      29.42754463      18.30600094      26.88685876 
S      30.79776596      16.52889521      22.96770936 
S      31.65968882      19.84752252      19.96568630 
S      31.11838552      23.62503340      22.12521816 
S      27.88142831      27.09948943      27.18629726 
S      30.68475504      26.17173159      18.09413859 
S      31.40446365      17.09244352      16.09174149 
S      28.76276084      12.32077571      23.97972431 
S      26.65672366      18.35811754      30.68004746 
S      28.03995690      26.47366122      22.88160212 
S      29.65356841      22.14967596      16.98289606 
S      29.19684453      15.06650076      19.31938033 
S      26.64721732      15.04331969      26.41342160 
S      26.10059648      22.25291231      28.59883295 
S      24.04068952      25.92274035      29.63834316 
S      27.37658985      29.16617841      19.60896291 
S      29.37951936      20.28001419      13.15390931 
S      27.40688126      11.14608393      19.62933666 
S      23.91709386      14.62813083      29.79100553 
S      22.65032151      20.84987840      31.33820584 
S      24.94654207      29.62157679      24.38907522 
S      28.11269618      25.30310589      14.14854787 
S      27.93846208      13.94405106      15.02537975 
S      24.51783951      11.11986582      25.66609955 
S      20.40550573      16.79356652      30.51529375 
S      21.49795638      28.17899418      27.23954768 
S      25.13834048      28.48670916      15.91640941 
S      26.29228645      17.30135675      12.16565638 
S      23.27552433       9.93746290      21.23586845 
S      20.40022717      10.11861669      25.40772383 
S      20.65676984      13.25165758      28.90427462 
S      18.45683554      21.59862438      31.28177174 
S      20.35312750      25.69560649      29.99533101 
S      21.13609489      30.99401051      22.72166006 
S      24.00860139      30.58959164      19.02393880 
S      24.68760210      25.60173338      11.62015794 
S      26.31936470      21.20949547      11.26150187 
S      24.17555207      12.56941954      13.32347947 
S      24.43922704      10.44441524      17.51046994 
C      31.49444157      23.15675509      25.72392853 
C      30.80103137      19.45604577      27.26925938 
C      31.77064613      16.90970652      24.47583044 
C      32.83977275      18.92705250      21.03038773 
C      32.66920228      22.67762360      21.89049393 
C      28.99306001      27.69399691      28.52714812 
C      32.21330323      27.19134288      18.20509956 
C      33.14315001      17.30989793      15.51985239 
C      30.27149469      11.28453812      24.18740311 
C      27.77509520      17.68982391      31.97825182 
C      29.73190827      26.55793569      23.58258996 
C      31.46713680      22.43545522      17.11684930 
C      31.00458660      15.06491351      19.63691354 
C      28.29436207      14.66634629      27.13658387 
C      27.76301293      22.33672400      29.37794160 
C      24.73007430      25.02841634      31.08938967 
C      28.06139903      29.89813854      21.14542549 
C      30.52890446      21.71277543      13.20932120 
C      28.93203056      11.29937294      18.61575026 
C      25.10277219      13.23197181      29.63978131 
C      24.08975854      20.43214556      32.38920300 
C      26.37894474      30.01263362      25.46007408 
C      29.77310497      26.04436396      14.39307415 
C      29.76516376      13.98777218      14.91701684 
C      26.16748203      10.33546034      25.83874829 
C      19.05456225      16.99755503      31.74559569 
C      20.52214824      29.73350903      27.31077912 
C      24.70935428      29.33644700      14.34280970 
C      25.80277667      16.24199872      10.74726250 
C      22.18528220       8.56729339      21.80046830 
C      21.66014440       8.83861966      25.78289772 
C      19.36091354      12.66464082      30.06053772 
C      19.30508320      21.08350129      32.82314421 
C      19.19651665      26.94132696      30.68288797 
C      22.04254287      31.98183039      23.97369690 
C      23.48622487      31.98238299      17.94957175 
C      26.16125962      26.65090012      11.31029944 
C      25.97267849      20.77011571       9.51582737 
C      25.77201019      12.27608193      12.46837542 
C      23.68504031       8.79311500      17.26816226 
Au      19.01618218      20.19180065      19.97046469 
Au      16.13922305      20.22083684      19.07799807 
Au      21.16134347      20.98878281      18.15268826 
Au      20.85848153      18.15552218      19.01918984 
Ag      19.72338084      23.53476355      17.71093897 
Au      20.50008122      21.78395801      15.45544836 
Ag      20.19500810      18.97308387      16.25421479 
Ag      19.94717936      16.15727817      17.12486708 
Ag      19.05448801      16.11064546      19.93518935 
Au      18.15747452      16.15591700      22.74740356 
Au      17.85615086      18.88052041      23.68747773 
Au      17.61180255      21.69703996      24.53952111 
Au      18.31326798      23.48783207      22.32707357 
Ag      19.02339703      25.23522998      20.00635800 
Au      17.56824064      22.71939417      19.54109689 
Ag      18.27504734      21.00767269      17.25439409 
Ag      18.00409226      18.18318963      18.08359587 
Ag      17.11484064      18.15459513      20.88558510 
Au      16.83493934      20.92379106      21.80184640 
Au      20.06203962      13.99028250      21.86721872 
Au      19.10746266      14.01954743      24.67607964 
Au      18.74503411      16.84538159      25.60487476 
Au      18.54581492      19.65945683      26.52928243 
Au      18.27213341      22.54001669      27.32631478 
Ag      18.94422529      24.29294478      25.06289479 
Ag      19.73705555      26.06877380      22.76667796 
Au      15.54942052      22.48794080      26.44708010 
Ag      16.14196259      24.29743171      24.19536213 
Au      16.92604990      25.97585088      21.94831062 
Ag      17.70476142      27.79280345      19.59873214 
Ag      18.32108793      26.10860674      17.25416363 
Ag      19.11680778      24.36175293      15.03600038 
Au      19.96045345      22.58777749      12.73123703 
Ag      19.55005121      19.75083304      13.48614695 
Ag      19.30698190      16.99904621      14.39581213 
Ag      19.08883782      14.14553649      15.26033689 
Au      18.10376020      14.06946032      18.01968092 
Au      17.23454987      14.08842798      20.83075429 
Au      16.40021003      14.02295661      23.75600086 
Ag      15.96732215      16.78416354      24.66282361 
Au      15.73084392      19.56732916      25.52789278 
Au      17.29088120      18.99433630      15.32067577 
Au      17.11450135      16.19966568      16.17868230 
Au      16.08086466      16.08640391      18.96488846 
Au      15.32760035      16.10137393      21.77286448 
Ag      14.88764323      18.84294327      22.74911692 
Au      14.76899093      21.64812847      23.66349236 
Au      15.32771151      23.48171427      21.40900029 
Au      16.24325605      25.21653491      19.18181299 
Ag      16.81157722      23.56710690      16.79904260 
Au      17.66377895      21.83850511      14.59644523 
Ag      14.61967983      22.76996175      18.62671201 
Au      15.41670516      21.03484140      16.31012551 
Au      15.14019037      18.15301535      17.17295398 
Ag      14.21328894      18.12305145      20.01383935 
Au      13.91033640      20.96301063      20.93216645 
Ag      13.27075168      20.20866616      18.16596792 
Ag      13.32626794      15.18166160      19.58884298 
Ag      12.38000531      17.29970632      22.23275397 
Au      12.13002178      19.90848852      23.23154914 
Au      12.44858890      23.30580406      22.12945114 
Au      13.11892129      24.96468936      20.03987506 
Au      14.20914589      24.91323334      16.63073772 
Ag      14.92413002      23.38102542      14.39900479 
Au      15.26047606      20.12218563      13.46094522 
Ag      15.02282164      17.35654573      14.21336905 
Ag      14.16039015      15.33213234      16.84029535 
Au      12.46276088      17.48962070      17.82611263 
Au      11.62312856      19.42898936      20.33520577 
Ag      11.82247763      22.33869707      19.40218949 
Au      12.88569933      22.34093508      16.32481486 
Au      13.20069581      19.37760644      15.41650311 
Ag      15.40190443      13.29534869      18.61923737 
Au      14.63237248      13.28239978      21.57923658 
Au      13.72425416      15.16351753      23.82932391 
Au      13.36705601      17.91145651      24.97469274 
Ag      13.20734443      20.81505594      25.94258640 
Au      13.41384115      23.68334172      24.98926027 
Au      14.06624920      25.70387669      22.77820991 
Au      15.01256184      27.42728991      20.45354799 
Ag      15.66991008      27.37450111      17.49031950 
Au      16.51784884      25.79570247      15.05301729 
Au      17.44235749      23.99461977      12.77605585 
Au      17.58109455      21.15253663      11.87817323 
Au      17.29972828      18.22910468      12.53436781 
Au      17.18778055      15.37095949      13.48191087 
Au      16.30234329      13.56682752      15.76510493 
Au      16.55722722      11.46720327      25.43629011 
Au      16.84759580      14.76921081      26.55724111 
Ag      16.68150728      17.54417725      27.44799510 
Au      16.45926547      20.35976669      28.27111871 
Au      15.29173290      23.19317183      29.38622091 
Au      16.79290511      25.13475297      26.88308010 
Ag      17.62907750      26.80843700      24.66914212 
Ag      18.30255704      28.51955550      22.37320162 
Au      18.44438864      30.69167477      19.90290046 
Ag      19.74925018      28.61375734      17.62849256 
Au      20.57083685      26.86244326      15.48994921 
Au      21.33469784      25.15476653      13.22397865 
Au      21.40746590      23.66984246      10.30401547 
Au      21.68765751      20.48535082      11.65080893 
Ag      21.47437163      17.71923839      12.55582350 
Ag      21.17207062      14.91180338      13.41483377 
Ag      20.49967718      11.84392000      13.95584901 
Ag      19.83039892      11.95521246      17.10526021 
Au      19.10226899      11.98209980      19.93416444 
Au      18.27373921      11.99308259      22.72838771 
Au      11.28083991      14.24571136      17.47472982 
Au       9.43997653      18.33068971      22.79886952 
Ag      10.21302341      24.83735566      20.79858669 
Au      12.23271000      25.05353635      14.25076877 
Ag      13.02674672      18.48371961      12.24360254 
Au      11.92050341      27.66590850      21.98287204 
Ag      10.75505365      18.87107521      25.92528515 
Ag      12.87064464      11.97903184      19.36162660 
Au      15.55311815      16.59339374      10.73321458 
Au      14.99706385      26.41371219      12.56618904 
Au      14.41865739      26.84119659      25.59386812 
Au      17.62153112      28.74192441      15.35197423 
Au      19.31349616      18.79429248      10.25558431 
Au      16.94059337      10.75537809      17.43707855 
Au      13.88930320      15.70039107      27.13954411 
S      11.22246706      22.96481238      14.58931301 
S      11.41742388      18.40981164      14.03668276 
S      10.29584625      16.33420703      17.88212475 
S       9.20312750      19.55762454      20.81228565 
S       9.74033432      23.58748392      18.79945511 
S      13.09997286      27.18926318      13.74549089 
S      10.10151342      26.33709299      22.69344794 
S       9.45936219      17.13199345      24.81520740 
S      12.05227858      12.06208480      17.07990808 
S      14.12612978      18.36578423      10.09675019 
S      12.95116309      26.47401568      18.09848591 
S      11.05790036      22.11252629      23.75097604 
S      11.70927824      15.00317325      21.53932790 
S      14.01216343      15.03459762      14.34872772 
S      14.64444770      22.15608828      12.19681838 
S      16.82737321      25.79000207      11.23437579 
S      13.59649827      29.19721936      21.35313314 
S      11.45364538      20.41590807      27.64476559 
S      13.46266908      11.14817754      21.55102413 
S      16.91904043      14.71756190      11.14074257 
S      18.27577004      20.81614589       9.57134661 
S      15.95487533      29.72041585      16.71792188 
S      12.80987141      25.41298202      26.59181213 
S      12.98421830      13.95560045      25.81109684 
S      16.36230770      11.19334616      15.19120417 
S      20.46943376      16.75041910      10.49669261 
S      19.36219690      28.24387651      13.83474172 
S      15.87699751      28.57607008      24.93250318 
S      14.64662584      17.14737854      28.83959859 
S      17.64331470      10.04268374      19.56541483 
S      20.66621745      10.12987443      15.63135308 
S      20.18752013      13.13888882      11.95962915 
S      22.41407796      21.66990376       9.59314529 
S      20.51127941      25.74294385      10.96954166 
S      19.88088286      31.08066548      18.07822855 
S      16.99932835      30.57430222      21.75295440 
S      16.12686033      25.38697024      29.27841331 
S      14.53242897      20.97744864      29.65035998 
S      16.60216678      12.49867196      27.54746261 
S      16.59825780      10.31420829      23.38216850 
C       9.54215103      23.26996838      15.24923393 
C      10.08836874      19.62961802      13.71453163 
C       9.29219849      16.74001433      16.40420898 
C       8.15638645      18.57641572      19.67556002 
C       8.20455059      22.61415624      19.04235495 
C      11.99867207      27.84432957      12.42575808 
C       8.63597821      27.41892432      22.43250236 
C       7.76326068      17.32120367      25.50530405 
C      10.54305955      11.00575090      17.11069680 
C      12.93198690      17.56658372       8.94647569 
C      11.23870937      26.66758790      17.47195728 
C       9.30233818      22.24972230      23.23993630 
C       9.89791050      14.92759235      21.24154504 
C      12.26240217      14.80876800      13.83412616 
C      12.93827003      22.00139322      11.54333449 
C      16.09316650      24.85971300       9.83264332 
C      12.95717378      30.01053727      19.83740423 
C      10.37115170      21.89177308      27.48563886 
C      12.01615023      11.44004256      22.64087479 
C      15.73930527      13.31757787      11.27838573 
C      16.84875180      20.34714952       8.52573325 
C      14.59327648      30.17976489      15.57634789 
C      11.16940991      26.14322647      26.23732407 
C      11.16432285      14.04299832      25.98440724 
C      14.67562312      10.54244881      14.90274523 
C      21.82520063      16.87873304       9.26020776 
C      20.33320971      29.80138519      13.76138591 
C      16.31652681      29.38838660      26.52275783 
C      15.18231567      15.98448456      30.15952490 
C      18.78512496       8.65469631      19.18605519 
C      19.38718769       8.89579458      15.15712310 
C      21.46451110      12.54924656      10.77892202 
C      21.56701041      21.13689326       8.05780992 
C      21.60028884      27.02365965      10.23969417 
C      18.91451843      32.09902243      16.89470786 
C      17.51953058      31.96300248      22.83524819 
C      14.71080198      26.52310685      29.53139803 
C      14.91267946      20.52257183      31.38457884 
C      14.97845658      12.17671767      28.33422105 
C      17.44862025       8.72537543      23.71488478 
H      32.01715713      22.19963625      25.60232500 
H      32.03240360      23.77036279      26.45496333 
H      31.45608375      23.66683400      24.75499915 
H      31.48842728      19.43063417      26.41453509 
H      31.31773119      19.09896044      28.16691950 
H      30.43621460      20.47959538      27.40997305 
H      32.22214084      17.90039866      24.34155891 
H      32.56458333      16.16243265      24.58494621 
H      31.13802539      16.91864491      25.36947812 
H      33.77204846      18.76521514      20.47822771 
H      32.42114750      17.96861435      21.35567917 
H      33.04515215      19.54612735      21.91260261 
H      33.50108177      23.38133588      21.77514676 
H      32.60357672      22.01925644      21.01734076 
H      32.83073378      22.07149211      22.79061627 
H      29.96616966      27.92049440      28.07535700 
H      29.12064589      26.94090117      29.30978939 
H      28.56841074      28.60776332      28.95846454 
H      32.15164916      27.99572846      17.46317419 
H      33.06599236      26.54232364      17.97262766 
H      32.34003366      27.61935642      19.20335498 
H      33.22260790      16.92763257      14.49551924 
H      33.79988625      16.72697220      16.17610158 
H      33.44938520      18.35968411      15.54034276 
H      29.97066917      10.23072613      24.20817873 
H      30.73111749      11.55349668      25.14586602 
H      30.98807683      11.44883915      23.37784795 
H      28.54440149      18.44301367      32.18394702 
H      28.24441011      16.75517326      31.65939000 
H      27.17526088      17.51655776      32.87944920 
H      30.36501047      27.10621311      22.87407674 
H      30.14907775      25.55960887      23.74559676 
H      29.66669969      27.10337577      24.53225440 
H      31.96480254      21.90328190      16.29765372 
H      31.82939210      22.05322861      18.07772287 
H      31.65379112      23.51256751      17.04041503 
H      31.51437472      15.26703418      18.68677716 
H      31.28016577      14.07018521      20.00840041 
H      31.27537513      15.81803213      20.38346859 
H      28.60921337      13.68638556      26.75924081 
H      28.19825012      14.64352634      28.22831618 
H      29.01862949      15.43519691      26.84633545 
H      27.94810086      23.36845097      29.70014174 
H      28.54235702      22.02526517      28.67511474 
H      27.74943243      21.66557564      30.24499235 
H      23.87248546      24.65003871      31.65973941 
H      25.30490368      25.72639403      31.70749348 
H      25.35814391      24.18605389      30.77840221 
H      28.93448195      30.50670004      20.88474019 
H      28.33355972      29.11976009      21.86680336 
H      27.27518396      30.53497858      21.56994429 
H      31.50239992      21.41555621      12.80393326 
H      30.64649695      22.09463905      14.22898553 
H      30.09666029      22.50253644      12.58219069 
H      28.63860155      11.10292798      17.57694434 
H      29.66032493      10.54924421      18.94178128 
H      29.35769206      12.30703666      18.68779244 
H      24.52208236      12.36333303      29.30430331 
H      25.54884591      13.02547313      30.61862909 
H      25.88344212      13.44503238      28.90185405 
H      24.63016955      21.36610301      32.58618186 
H      24.75675328      19.71928625      31.89397750 
H      23.71989765      20.01387836      33.33235482 
H      27.20164768      30.31298417      24.79976298 
H      26.68672625      29.14999086      26.06081124 
H      26.10329025      30.85091343      26.11012038 
H      29.83166246      26.98291386      13.83084148 
H      30.50532633      25.33192934      13.99338725 
H      29.98085915      26.22501089      15.45348541 
H      30.05639394      13.69999486      13.90027185 
H      30.14809516      13.25034144      15.63299115 
H      30.16641621      14.97743791      15.16120909 
H      26.07836922       9.26485277      25.62263991 
H      26.49422358      10.47051567      26.87696615 
H      26.90364024      10.79125550      25.16800889 
H      18.36962778      16.14947066      31.62166115 
H      18.50594067      17.93184378      31.58691482 
H      19.48041976      16.97794362      32.75512137 
H      19.59647196      29.51286755      27.85664326 
H      20.27536627      30.09268879      26.30627012 
H      21.09901674      30.49099192      27.85368977 
H      25.59565557      29.86048812      13.96758447 
H      23.92150554      30.06558114      14.56890770 
H      24.34602068      28.62989890      13.58917535 
H      25.27459550      16.87931379      10.02740623 
H      25.14305605      15.42923803      11.06815694 
H      26.70784665      15.83388831      10.28272007 
H      21.71526048       8.12125410      20.91562004 
H      21.40623957       8.92450169      22.48309750 
H      22.79819542       7.81061380      22.30390577 
H      21.67609479       8.13278287      24.94380137 
H      21.35674581       8.31354210      26.69546871 
H      22.65214086       9.28558792      25.91085546 
H      19.72433268      11.75179861      30.54702435 
H      18.41995412      12.46409349      29.53636540 
H      19.22087111      13.45042699      30.81286942 
H      19.00578512      20.05239660      33.04500289 
H      18.96539441      21.74768929      33.62648424 
H      20.39272973      21.13759321      32.71592440 
H      19.47065564      27.90940054      30.24606438 
H      19.33108686      26.97897156      31.77014398 
H      18.15733673      26.69350426      30.43932653 
H      22.12468792      33.00771963      23.59583113 
H      23.03741741      31.56718729      24.16333120 
H      21.45600268      31.97768797      24.89997741 
H      23.96889176      31.83227197      16.97592018 
H      23.83739400      32.92322609      18.38824941 
H      22.39732833      32.00762942      17.83020832 
H      26.45012221      26.54019959      10.25920531 
H      26.99118633      26.37046974      11.96749408 
H      25.87364449      27.69110506      11.50452334 
H      26.66304878      21.33457537       8.87809302 
H      24.93547872      20.99652724       9.24504974 
H      26.17093463      19.69647933       9.41107931 
H      25.77851931      12.88051168      11.55364939 
H      25.82528658      11.21285191      12.20724195 
H      26.61854531      12.55613984      13.10311339 
H      24.40284177       8.16244670      16.73098978 
H      22.74481834       8.86409917      16.70983414 
H      23.50631588       8.38297838      18.26989157 
H       8.97560759      23.84557046      14.50895707 
H       9.57319324      23.79243899      16.21148016 
H       9.07219496      22.28817069      15.38820812 
H       9.49034068      19.27255736      12.86800287 
H      10.49230931      20.62348885      13.49687721 
H       9.45642386      19.68596607      14.60952487 
H       8.49299038      15.99610606      16.31262320 
H       9.90415037      16.76785762      15.49725144 
H       8.85384382      17.73125031      16.57467609 
H       8.08566776      19.13728499      18.73528407 
H       7.15931196      18.47834000      20.11949850 
H       8.58791794      17.58966254      19.48107579 
H       8.03676975      22.02047929      18.13485016 
H       7.36329615      23.30200188      19.18267025 
H       8.28377432      21.93795119      19.89984814 
H      12.45425801      28.76036463      12.03196852 
H      11.02902536      28.07873897      12.87999352 
H      11.86598131      27.11798961      11.61937992 
H       7.73988648      26.81963870      22.63295351 
H       8.59617753      27.80596901      21.41056703 
H       8.68466677      28.25296994      23.14192840 
H       7.06699188      16.73179641      24.89807348 
H       7.44722622      18.36797140      25.51838834 
H       7.77880192      16.93096157      26.52996605 
H       9.97305172      11.18298246      16.19160157 
H       9.91709343      11.22212191      17.98078373 
H      10.87066607       9.95989856      17.14445345 
H      13.46377397      17.28545339       8.03026437 
H      12.15518924      18.30261957       8.70743701 
H      12.47215783      16.68028673       9.39232008 
H      11.29188930      27.20890406      16.52000135 
H      10.67199871      27.24788503      18.21054404 
H      10.76370050      25.69258684      17.32610110 
H       8.98906262      23.28844826      23.40234337 
H       8.71237756      21.57149374      23.86866651 
H       9.17412730      21.97626700      22.18818347 
H       9.65252056      13.93326267      20.84937192 
H       9.58888578      15.68847041      20.51878663 
H       9.38672616      15.09372919      22.19707400 
H      12.22707548      14.76527086      12.73884843 
H      11.64021934      15.63794390      14.18520802 
H      11.89794555      13.86580057      14.25853218 
H      12.95190651      21.28738179      10.71078691 
H      12.62404437      22.99003768      11.18619890 
H      12.24562908      21.66505261      12.32056987 
H      15.53634278      25.55972452       9.19993933 
H      15.43934003      24.05687785      10.19164041 
H      16.92878357      24.42821683       9.26752300 
H      13.77900828      30.61416568      19.43210988 
H      12.11763001      30.65819347      20.11409299 
H      12.64343439      29.27104238      19.09301221 
H      10.83083595      22.70416449      28.06200386 
H       9.38543708      21.65715519      27.90291237 
H      10.27163016      22.20664684      26.44055398 
H      11.26653618      10.66755533      22.43447247 
H      11.59500590      12.43868131      22.47392792 
H      12.36048652      11.35826686      23.67922181 
H      15.30367550      13.12610758      10.29141197 
H      14.95526813      13.53617314      12.01233877 
H      16.32034178      12.44604242      11.60509841 
H      17.23254097      19.96788587       7.57156435 
H      16.25975748      21.25594360       8.35246413 
H      16.21978827      19.59176061       9.00746107 
H      14.93047855      30.99301937      14.92430078 
H      13.75964365      30.53055375      16.19718832 
H      14.26367218      29.32586522      14.97563818 
H      10.41480191      25.42208131      26.57452596 
H      11.03322626      26.34289470      25.16949007 
H      11.07432623      27.07170748      26.81200226 
H      10.73512098      13.33362349      25.26620856 
H      10.78391551      15.04760733      25.77414339 
H      10.89908214      13.74191334      27.00441603 
H      14.36987967      10.87606894      13.90355720 
H      13.96484203      10.91852645      15.64580828 
H      14.71656614       9.44764555      14.93122897 
H      21.39610161      16.81612667       8.25379307 
H      22.49931990      16.02916719       9.42475977 
H      22.38370086      17.81366424       9.37235034 
H      19.74106746      30.56009357      13.23682164 
H      21.24945545      29.59101878      13.19606789 
H      20.59500281      30.15459611      14.76464162 
H      17.11598584      30.10949887      26.31247078 
H      16.66957965      28.65943501      27.25956366 
H      15.43862607      29.91800215      26.90962836 
H      14.30126681      15.49062267      30.58462871 
H      15.67787298      16.57922480      30.93690472 
H      15.88298720      15.23696437      29.77282155 
H      18.19690856       7.81667472      18.79483468 
H      19.26344626       8.36224015      20.12879801 
H      19.55164054       8.95358628      18.46235031 
H      19.78820849       8.29220374      14.33471430 
H      18.45626938       9.37955442      14.84606344 
H      19.18641986       8.24904354      16.01924050 
H      21.53556139      13.28713390       9.97065236 
H      21.14406792      11.58687917      10.36346166 
H      22.43884860      12.43389151      11.26666665 
H      21.87978576      21.81064952       7.25159104 
H      20.47930181      21.15970788       8.17581581 
H      21.89337231      20.11469677       7.83245561 
H      21.40455006      27.06883087       9.16204042 
H      22.65684071      26.79935952      10.42373147 
H      21.32752673      27.98014379      10.70209090 
H      19.49520553      32.17833608      15.96797000 
H      18.77950036      33.09702891      17.32657404 
H      17.94173070      31.64267854      16.68282860 
H      17.20351361      32.90860240      22.38044668 
H      18.60448208      31.96413736      22.98701810 
H      17.00386830      31.82881090      23.79412948 
H      15.05487701      27.54079402      29.31183361 
H      14.40631922      26.45586894      30.58228677 
H      13.87402937      26.26677281      28.87413185 
H      14.79565068      19.43475132      31.46263705 
H      14.18214827      21.01818365      32.03479667 
H      15.92976631      20.81887327      31.66307036 
H      14.94181327      11.11485989      28.60421306 
H      14.15376468      12.42774428      27.66000753 
H      14.91477167      12.79042630      29.24056395 
H      17.70067097       8.28430274      22.74281988 
H      16.74884579       8.06825164      24.24465818 
H      18.35483647       8.87328780      24.31278160 
