646
Properties=species:S:1:pos:R:3 i=92 optimized=T E=-9687.7186707672 pbc="F F F" jobid=246_80-Ag-10_2-000006-PBE
Ag      21.89525231      20.20233787      20.92368680 
Au      24.75821207      20.21692908      21.82631863 
Au      20.44171926      22.68627102      20.44684053 
Au      19.72722040      20.97675087      22.74617825 
Au      20.00286796      18.17601926      21.86401801 
Au      21.13614059      23.51680094      23.15571678 
Au      20.37994679      21.80657696      25.49111190 
Au      20.67988220      18.98472776      24.62540190 
Au      20.93892853      16.15407742      23.74024470 
Au      21.86636503      16.11683603      20.97725899 
Au      22.73164901      16.14358853      18.12820506 
Ag      23.06113144      18.90768869      17.23394230 
Au      23.28261222      21.70492161      16.34968301 
Au      22.60024867      23.46178136      18.58512183 
Au      21.84853346      25.17626456      20.83976748 
Ag      23.36567885      22.71308788      21.35660226 
Au      22.63327321      21.01965032      23.65739599 
Au      22.91890734      18.20468605      22.83936169 
Au      23.80159468      18.16715504      20.01432035 
Au      24.08986725      20.95614691      19.10470234 
Ag      20.86579831      14.02180676      19.02969826 
Au      21.82963448      14.02243557      16.22043682 
Au      22.14806035      16.86147029      15.30956217 
Au      22.32638516      19.71101445      14.38707098 
Au      22.60613606      22.53819846      13.54201776 
Au      21.94663113      24.34595822      15.84007547 
Au      21.16119001      26.10708640      18.10645706 
Au      20.45455947      27.82254660      20.43826008 
Au      25.31947042      22.48239285      14.43070179 
Au      24.77607452      24.31963686      16.71983527 
Au      24.00742876      25.97117488      18.94828555 
Au      23.17782388      27.73548756      21.22424467 
Au      22.53948683      26.07040898      23.61222097 
Au      21.79931468      24.34742480      25.84340087 
Ag      20.98976201      22.61803026      28.21624661 
Au      21.38159293      19.79215557      27.41729063 
Au      21.59465412      17.02253938      26.50509917 
Au      21.76790615      14.08024767      25.60339302 
Ag      22.83487797      14.00277410      22.85540879 
Au      23.63860432      14.05834149      20.07204655 
Au      24.52772997      14.04532506      17.14113452 
Au      24.98038112      16.83284566      16.25214275 
Au      25.15560123      19.61075249      15.39974675 
Au      23.68355084      19.00838110      25.62404694 
Au      23.78247767      16.18940575      24.70726363 
Au      24.81627860      16.06475087      21.95612574 
Au      25.54452027      16.06800258      19.09121126 
Au      26.03437046      18.86541991      18.15245156 
Au      26.17813686      21.68859417      17.23628153 
Au      25.60289529      23.47847993      19.50710735 
Au      24.76059388      25.21449389      21.70993310 
Au      24.14789982      23.56378305      24.10217201 
Au      23.28762880      21.85772426      26.33746228 
Au      26.27805161      22.78438288      22.26139099 
Au      25.55412086      21.05002536      24.62636209 
Au      25.79911683      18.12463781      23.78411084 
Au      26.73112775      18.07865289      20.87700538 
Au      27.02050789      20.96384826      19.96220120 
Au      27.66290870      20.19576208      22.76150143 
Au      27.62480879      15.18211555      21.39640864 
Au      28.58444996      17.34578786      18.60834976 
Au      28.85949902      19.93474980      17.68526373 
Au      28.53881747      23.33601220      18.76745061 
Au      27.89705453      25.02631189      20.87286120 
Au      26.68730692      25.03805236      24.20737234 
Ag      26.00379082      23.45842419      26.44413948 
Au      25.76162357      20.09090035      27.51899699 
Au      25.93731642      17.40198407      26.80752484 
Au      26.83325903      15.26686105      24.05706061 
Au      28.52987038      17.49879524      23.08683796 
Au      29.35233402      19.37117433      20.61320279 
Au      29.05509106      22.32823524      21.50866470 
Ag      28.09425204      22.44223455      24.49216675 
Au      27.78726135      19.40635270      25.47682261 
Au      25.57514649      13.28573594      22.28443386 
Au      26.25379307      13.31398747      19.29307109 
Ag      27.27004700      15.14014971      17.06507055 
Au      27.61416376      17.95435987      15.90293994 
Au      27.66471914      20.89870519      14.95558045 
Au      27.51007752      23.75238624      15.88768202 
Au      26.89552705      25.68697718      18.18757512 
Au      25.92552368      27.47230590      20.42909204 
Au      25.11042933      27.45570177      23.34852523 
Au      24.37284695      25.88224684      25.83547607 
Au      23.50474097      24.05878133      28.09565814 
Au      23.37630123      21.21990355      29.03590652 
Au      23.61658693      18.23737259      28.39883606 
Au      23.66166759      15.30941647      27.40868476 
Au      24.56797542      13.56749920      25.15467625 
Au      24.35564975      11.54616347      15.41108090 
Au      24.11642730      14.82737368      14.35034834 
Au      24.19529945      17.57014775      13.44360739 
Au      24.40591990      20.37510673      12.60801957 
Au      25.57436775      23.22252753      11.49206613 
Au      24.13748551      25.11476039      14.00356026 
Au      23.30309545      26.88325217      16.16476273 
Au      22.56994412      28.54039962      18.48270327 
Ag      22.37805127      30.62276099      20.82691386 
Au      21.25207627      28.62845819      23.24605597 
Ag      20.38740907      26.92533316      25.45642243 
Au      19.64031154      25.14802327      27.65953702 
Au      19.44866185      23.70604555      30.56875117 
Au      19.29304813      20.47334055      29.28665855 
Au      19.41943245      17.72083377      28.39946864 
Au      19.67373335      14.94417532      27.48093485 
Au      20.59458307      11.79423250      27.22325892 
Au      21.04233687      11.89070103      23.76315861 
Au      21.78273310      11.94143232      20.97403222 
Au      22.64650245      11.99888450      18.17164470 
Au      29.75377382      14.25042421      23.51724536 
Au      31.48814603      18.22578369      18.04987710 
Au      30.92768680      24.89121391      20.12230459 
Au      28.66672963      25.03190600      26.64534276 
Au      28.07131746      18.46467136      28.84555959 
Au      29.02459526      27.67671317      18.94524496 
Au      30.26899358      18.64987431      14.73197804 
Au      28.07630335      11.68914312      21.70994667 
Au      25.36087322      16.54281836      30.14818327 
Au      25.88211350      26.40540448      28.35900262 
Ag      26.46632730      26.62715966      15.34712316 
Au      23.15994084      28.81602591      25.73378638 
Au      21.73224965      18.89602859      30.73954286 
Au      24.07255680      10.86349753      23.34822360 
Au      27.14082925      15.69877941      13.88990004 
S      29.73569513      22.97693988      26.30195911 
S      29.51359994      18.52690200      26.99579108 
S      30.71022219      16.36173637      23.15291726 
S      31.75009279      19.45730734      20.03118859 
S      31.13943008      23.53124739      22.02769646 
S      27.79784152      27.15660462      27.19624351 
S      30.87387668      26.35425396      18.27741252 
S      31.43021225      17.03569708      16.01622173 
S      29.01078493      12.04164787      23.85463196 
S      26.78427641      18.31267501      30.81294752 
S      28.12479837      26.50550386      22.83342825 
S      29.90034929      22.09774693      17.14964239 
S      29.04938481      15.06322885      19.38001516 
S      26.90971659      15.15363229      26.50661507 
S      26.26879739      22.21414612      28.63127573 
S      24.05840565      25.79892771      29.71523018 
S      27.37282591      29.23442081      19.56984897 
S      29.30973671      20.23657024      13.28514216 
S      27.28544840      11.11896207      19.57186212 
S      24.02957607      14.65108402      29.72575498 
S      22.76639630      20.92829042      31.37458814 
S      24.89031805      29.66201926      24.34997172 
S      28.26007418      25.34791677      14.23123168 
S      27.98488559      13.83446774      15.07472963 
S      24.59104489      11.17982370      25.63717443 
S      20.50890205      16.90137836      30.44625398 
S      21.37474635      28.40209389      27.21858367 
S      25.01078104      28.56230913      15.70464333 
S      26.35913055      17.29063328      12.32298671 
S      23.48234709      10.17026814      21.17388569 
S      20.40153257      10.22970335      25.48336851 
S      20.63821689      13.29630212      29.03472037 
S      18.48716731      21.68409535      31.27060524 
S      20.35286669      25.77689220      29.92233224 
S      21.07108339      31.03736448      22.81349230 
S      23.83423850      30.58511170      18.89613086 
S      24.77293449      25.42695293      11.64313896 
S      26.31573614      21.00886782      11.19185087 
S      24.25277954      12.59667777      13.31262195 
S      24.36383140      10.35465719      17.43877319 
C      31.42202601      23.34060330      25.67986248 
C      30.83264725      19.74626660      27.34717924 
C      31.68360451      16.81055550      24.63790425 
C      32.80255757      18.48203591      21.16767959 
C      32.61808086      22.47094818      21.82552799 
C      28.89606022      27.77819903      28.53512881 
C      32.31184662      27.47809407      18.50147893 
C      33.14713935      17.09680598      15.36139137 
C      30.53217698      11.00913613      23.84785728 
C      27.88849170      17.53790574      32.06226047 
C      29.82770214      26.52597177      23.50409269 
C      31.64645063      22.17260658      17.69749488 
C      30.84070666      14.92714178      19.74812918 
C      28.66719735      15.05696038      27.01295840 
C      27.94257174      22.13227050      29.37723641 
C      24.79790815      24.84269589      31.09676723 
C      28.03058753      29.99543066      21.10560555 
C      30.47241016      21.65702733      13.32151442 
C      28.75635916      11.23210986      18.47939890 
C      25.23656575      13.27921287      29.54402197 
C      24.23473275      20.51755168      32.38668021 
C      26.30679132      30.06007952      25.43870918 
C      29.86523678      26.08349684      14.71512970 
C      29.80534640      13.85558423      14.86423113 
C      26.29397482      10.56271453      25.89864636 
C      19.19274487      17.01801827      31.72199426 
C      20.40302975      29.96060247      27.12879073 
C      24.62144552      29.15435238      14.00983202 
C      25.95883522      16.26416100      10.85355970 
C      22.47826302       8.66113171      21.47127834 
C      21.66487937       8.93286432      25.77145848 
C      19.31811306      12.72016706      30.16904718 
C      19.36609469      21.19512222      32.80452578 
C      19.20133772      27.05232600      30.55995723 
C      22.11528643      32.05158797      23.93114967 
C      23.25709793      31.85293940      17.70668940 
C      26.21783473      26.53193583      11.40743157 
C      25.92301870      20.59316808       9.45042939 
C      25.85763239      12.29330023      12.48011112 
C      23.55080471       8.75474648      17.06604404 
Au      18.99032265      20.19197519      19.98467586 
Au      16.12539472      20.17902420      19.03590102 
Au      21.16192360      20.96546529      18.18353920 
Au      20.89354567      18.18067521      19.04984686 
Ag      19.72191718      23.51205030      17.74501817 
Au      20.45620663      21.77079246      15.47217115 
Au      20.19036889      18.99441454      16.27525169 
Au      19.95837462      16.17385379      17.17587521 
Au      19.03939845      16.11978195      19.96828831 
Au      18.15166389      16.10966505      22.79023555 
Au      17.82960529      18.87300682      23.68516276 
Au      17.58429632      21.72012104      24.59639053 
Au      18.25361235      23.47446357      22.34229628 
Au      19.04091597      25.19693766      20.02847785 
Au      17.51382696      22.69870913      19.54543137 
Ag      18.24629438      21.00306448      17.24870133 
Ag      17.98898584      18.18531615      18.09113747 
Au      17.07476299      18.14999223      20.89181923 
Au      16.79911000      20.94062551      21.81026514 
Au      20.04919951      13.98699627      21.90990793 
Au      19.07920749      14.01499212      24.73631368 
Au      18.73336260      16.84143652      25.61783568 
Au      18.54342973      19.71674629      26.53257931 
Ag      18.23259031      22.56533032      27.39981060 
Au      18.90005293      24.35342734      25.09167451 
Au      19.72738085      26.10037376      22.79985665 
Au      15.52980247      22.51203555      26.47692171 
Ag      16.09737185      24.29537779      24.21047494 
Au      16.88294023      25.95934147      21.97441787 
Au      17.72813479      27.77314833      19.65386328 
Au      18.32694048      26.08829195      17.27566903 
Au      19.06793215      24.33320817      15.08984087 
Au      19.86221992      22.54172808      12.72289027 
Ag      19.48934748      19.76243239      13.45158760 
Au      19.29705815      17.00935382      14.39961336 
Au      19.14526665      14.08353614      15.31216358 
Au      18.08469568      14.03822107      18.09999071 
Au      17.24067494      14.03743280      20.87523879 
Au      16.40307593      14.01784541      23.81389804 
Ag      15.94004511      16.80348311      24.69416264 
Au      15.73637424      19.58163554      25.51246526 
Au      17.28469163      19.00192427      15.31068842 
Au      17.12170081      16.20051955      16.21436502 
Au      16.09340951      16.08462375      18.97921936 
Au      15.31913107      16.06822250      21.83922584 
Au      14.84260973      18.83908985      22.74801578 
Au      14.72081578      21.64047321      23.66268498 
Au      15.27495031      23.48389331      21.41880161 
Au      16.16144722      25.21178452      19.20123792 
Au      16.77835084      23.56476099      16.79898919 
Ag      17.63167809      21.85395763      14.55524868 
Au      14.62852155      22.76645453      18.60246895 
Au      15.41579576      21.01365770      16.26786666 
Ag      15.08882932      18.11588752      17.09260887 
Au      14.19368056      18.06356285      19.97229169 
Au      13.88770361      20.95278893      20.92592806 
Au      13.22376504      20.15876190      18.12088212 
Au      13.23717138      15.16120851      19.53503663 
Au      12.40912473      17.24003751      22.29903858 
Ag      12.10128397      19.92440963      23.20487471 
Au      12.36045444      23.28162433      22.16225079 
Au      13.06692090      24.99984074      20.08280134 
Au      14.12899523      25.03328571      16.62819964 
Au      14.91326486      23.50742056      14.45658519 
Au      15.23538753      20.06509787      13.42678360 
Au      14.97071523      17.40888961      14.15206225 
Au      14.11287454      15.29807782      16.89867333 
Au      12.29934781      17.48036199      17.88197951 
Au      11.60482997      19.28116197      20.31215502 
Au      11.87567869      22.33629173      19.39133872 
Au      12.85008671      22.37347079      16.35174882 
Au      13.13058686      19.45470244      15.38259054 
Au      15.34197261      13.28520548      18.66498959 
Au      14.61172341      13.31462997      21.65631043 
Au      13.73054947      15.09874137      23.90638584 
Au      13.28960638      17.92805585      25.00458634 
Au      13.22744778      20.82762281      25.93946046 
Au      13.35740045      23.68438958      24.95881295 
Au      14.00976092      25.68881128      22.78761370 
Au      14.98297142      27.45934408      20.49647768 
Au      15.73758315      27.44084598      17.58282078 
Au      16.48536067      25.89294952      15.06027202 
Au      17.51640665      24.11472022      12.74814806 
Ag      17.46349789      21.16297979      11.81508677 
Au      17.29566450      18.18855714      12.50584356 
Au      17.23322870      15.28221729      13.51036959 
Au      16.34024093      13.55102657      15.79402799 
Au      16.52644604      11.50858184      25.52085757 
Au      16.83488002      14.80344929      26.62420551 
Au      16.69611894      17.55230256      27.47795696 
Au      16.45040943      20.37540330      28.27059198 
Au      15.32512905      23.24767557      29.41643813 
Au      16.77012532      25.14291765      26.90702749 
Ag      17.56379877      26.84069970      24.69053011 
Au      18.35710240      28.50717868      22.42797927 
Au      18.28611940      30.73054132      20.04686451 
Au      19.65883805      28.63763800      17.61626527 
Au      20.51943013      26.93851457      15.43576743 
Au      21.23563459      25.13056035      13.22758034 
Au      21.37422688      23.66583639      10.29597718 
Au      21.61084159      20.46268830      11.58671162 
Au      21.48604932      17.73245434      12.51838443 
Au      21.24775712      14.94781472      13.44975714 
Au      20.37018276      11.80015472      13.73218718 
Au      19.81808895      11.92580224      17.18099270 
Au      19.12020741      11.91593937      19.98213947 
Au      18.24946517      11.97398338      22.76682314 
Ag      11.29298775      14.35593687      17.34956942 
Au       9.48117037      18.24885866      22.87723319 
Au      10.01951592      24.89684200      20.84271289 
Au      12.15384651      25.05521138      14.21245020 
Au      12.94505820      18.48645231      11.99225465 
Au      11.89717231      27.69177899      22.00571423 
Au      10.63374065      18.65522436      26.19388375 
Au      12.81874704      11.72987061      19.13357769 
Au      15.59368442      16.49309071      10.72859462 
Au      14.94338650      26.43781365      12.52867097 
Au      14.34413004      26.82133668      25.66345521 
Au      17.58587925      28.77239882      15.17426338 
Au      19.16160153      18.98617446      10.20470580 
Au      16.84228917      10.81818391      17.53255671 
Au      13.78740530      15.71642961      27.13481925 
S      11.19187730      22.95609975      14.62022489 
S      11.45594312      18.54068622      13.80614479 
S      10.09279870      16.42687386      17.63140921 
S       9.24184858      19.52311306      20.92583760 
S       9.78854829      23.54925133      18.93431966 
S      12.98956159      27.17986515      13.63932418 
S      10.06519924      26.35822808      22.68914192 
S       9.48677722      17.04396218      24.90029740 
S      11.92895579      12.05665740      16.97008567 
S      14.27833790      18.33827405      10.05318555 
S      12.82075089      26.47442275      18.12011725 
S      10.95649509      22.09938232      23.79249339 
S      11.69108890      15.02567994      21.45783021 
S      14.00709676      15.16539578      14.44593177 
S      14.82651374      22.23482392      12.34189953 
S      16.78836487      25.86449372      11.19245276 
S      13.55395907      29.23391115      21.37131654 
S      11.58492431      20.23957620      27.64433576 
S      13.55844296      11.15066536      21.29502456 
S      16.84080859      14.56124821      11.21188778 
S      18.18750787      21.00071013       9.42981080 
S      15.89329549      29.65558690      16.57368323 
S      12.74362477      25.35270367      26.61593016 
S      12.94490168      13.89672434      25.87633298 
S      16.32804433      11.17585528      15.24867590 
S      20.31818669      16.94441476      10.51325462 
S      19.36731728      28.25864156      13.71457225 
S      15.81423789      28.57947902      25.11098630 
S      14.58485294      17.28078398      28.70916446 
S      17.45591720      10.11358904      19.69433574 
S      20.55800695      10.26290520      15.49894726 
S      20.29634446      13.28309259      11.90444183 
S      22.39796005      21.68016857       9.57702477 
S      20.50542038      25.74788574      10.96410947 
S      19.66756134      31.03927734      18.16974453 
S      16.98084274      30.50127808      21.99289581 
S      16.10517159      25.45829192      29.27896567 
S      14.56830877      21.03922846      29.70818122 
S      16.60918735      12.54988506      27.62324388 
S      16.55238958      10.33868951      23.47921613 
C       9.52274102      23.22176821      15.32545171 
C      10.13383280      19.74348182      13.40939192 
C       9.20760844      16.91843744      16.10558921 
C       8.13778687      18.60956530      19.78435752 
C       8.30538764      22.50052849      19.15868148 
C      11.91368375      27.77841929      12.27346382 
C       8.61633108      27.46832334      22.46656932 
C       7.75693699      17.14268928      25.51767041 
C      10.38329650      11.05854830      16.96735219 
C      13.17242863      17.64582676       8.75742910 
C      11.10511042      26.53937168      17.48110164 
C       9.19667711      22.27380188      23.30781487 
C       9.93627563      15.11253400      20.94732889 
C      12.24562360      15.08143767      13.95054893 
C      13.14819814      22.17831817      11.60438519 
C      16.07553552      24.89940794       9.80353886 
C      12.90337487      30.00306646      19.83626854 
C      10.43100532      21.66682720      27.60362123 
C      12.05356774      11.26482298      22.34036630 
C      15.58598361      13.23837607      11.42601220 
C      16.81049516      20.51133943       8.32273347 
C      14.44515581      30.02225159      15.51654405 
C      11.09597899      26.06085721      26.24977422 
C      11.12060241      13.92778540      26.01968946 
C      14.63420367      10.54609737      14.96030015 
C      21.61528603      17.00222964       9.21367017 
C      20.32203802      29.82632758      13.64724778 
C      16.23040818      29.29196900      26.75423029 
C      15.05694411      16.22556012      30.13701227 
C      18.48398173       8.62436371      19.38097799 
C      19.30889376       8.95478959      15.19625938 
C      21.60300967      12.71593441      10.75101733 
C      21.57487598      21.16794356       8.02188901 
C      21.67040859      26.99857731      10.30103945 
C      18.71867835      32.04977196      16.96892008 
C      17.50176782      31.84596406      23.12239762 
C      14.65127824      26.54794457      29.52534434 
C      14.95590238      20.60239369      31.44533827 
C      14.99955578      12.24673053      28.44638009 
C      17.39092538       8.74969582      23.84446189 
H      31.92689312      22.37467472      25.55131058 
H      31.96038972      23.93390240      26.42673657 
H      31.40126746      23.86237602      24.71786188 
H      31.46827720      19.79957459      26.45445397 
H      31.42192014      19.38160345      28.19610892 
H      30.42530734      20.73942149      27.55964771 
H      32.10474558      17.80753914      24.45731617 
H      32.49603051      16.08438517      24.75353863 
H      31.06388620      16.84024129      25.53943912 
H      33.79234127      18.37027367      20.71079605 
H      32.36774688      17.50262502      21.38878942 
H      32.89121951      19.05593232      22.09868096 
H      33.50385987      23.11553727      21.79576292 
H      32.56135271      21.85557807      20.92215567 
H      32.66844916      21.81751132      22.70547129 
H      29.86893531      28.01702936      28.08995089 
H      29.02216205      27.03480127      29.32693319 
H      28.44417489      28.68844163      28.94633494 
H      32.24116475      28.26812869      17.74466778 
H      33.22493772      26.89296090      18.34179830 
H      32.32396783      27.92082374      19.50105824 
H      33.13330490      16.68723844      14.34456179 
H      33.77692144      16.47123815      16.00450171 
H      33.53257385      18.11984152      15.34501833 
H      30.22431683       9.95700298      23.84337999 
H      31.09245927      11.22765029      24.76429942 
H      31.15386783      11.21833711      22.97314804 
H      28.66776634      18.26428739      32.32056522 
H      28.34639044      16.62208206      31.67885909 
H      27.28536053      17.31009976      32.94892688 
H      30.48522836      26.97759063      22.75084079 
H      30.17638372      25.51593957      23.73530212 
H      29.81643977      27.13415085      24.41659009 
H      32.21829576      21.44246483      17.11160169 
H      31.73812593      21.94104576      18.76200644 
H      32.00989424      23.18902424      17.50422460 
H      31.38660584      15.01470670      18.80150606 
H      31.01670183      13.94618522      20.20604396 
H      31.15451691      15.71685494      20.43703330 
H      29.02844312      14.05228427      26.76274352 
H      28.71824990      15.22498149      28.09581359 
H      29.27004776      15.80872379      26.49694660 
H      28.18029821      23.12779026      29.77182058 
H      28.69171920      21.85226391      28.63117268 
H      27.92470638      21.39568806      30.18887448 
H      23.96474969      24.40033290      31.65722955 
H      25.35808116      25.52969448      31.74080393 
H      25.44900128      24.04604419      30.71995862 
H      28.88483999      30.63043088      20.84543806 
H      28.32551611      29.22823385      21.83016632 
H      27.22409105      30.60802260      21.52749317 
H      31.38254427      21.37887784      12.77856701 
H      30.70903130      21.94666631      14.35116275 
H      29.97107991      22.49168106      12.81549966 
H      28.39213248      11.14401168      17.44807159 
H      29.43173993      10.40097204      18.71123452 
H      29.26936585      12.19162589      18.60352463 
H      24.67567327      12.40965918      29.17915429 
H      25.66990319      13.05973001      30.52621373 
H      26.02162077      13.53712135      28.82474737 
H      24.79116859      21.44957672      32.54403933 
H      24.87888828      19.78701741      31.88722303 
H      23.89181629      20.12463690      33.35073861 
H      27.14957667      30.33277682      24.79191654 
H      26.58703346      29.20634474      26.06355883 
H      26.03027298      30.91587052      26.06522422 
H      30.04353510      26.95312611      14.07117089 
H      30.65305903      25.33854401      14.55288525 
H      29.87172368      26.39182367      15.76454222 
H      30.04839748      13.64230350      13.81739139 
H      30.21143011      13.06099014      15.50236532 
H      30.23668011      14.81683708      15.16206442 
H      26.28303991       9.46977764      25.81606403 
H      26.59156077      10.85268429      26.91375347 
H      26.99623321      10.98916774      25.17565726 
H      18.48618257      16.19875149      31.54010143 
H      18.66454792      17.97491282      31.66226641 
H      19.65090764      16.89864297      32.71065109 
H      19.47653115      29.80100142      27.69414924 
H      20.15609977      30.21820553      26.09322460 
H      20.97716007      30.77101434      27.59192853 
H      25.51439537      29.64212539      13.60073363 
H      23.80632864      29.88475472      14.07952904 
H      24.31518681      28.32894869      13.35863315 
H      25.43652305      16.90692451      10.13424620 
H      25.31664459      15.41964416      11.12307381 
H      26.89604125      15.90269547      10.41462739 
H      22.01683534       8.38053256      20.51638317 
H      21.69644836       8.84546492      22.21512058 
H      23.14399689       7.85912347      21.81069769 
H      21.70722122       8.29930826      24.87759129 
H      21.34086454       8.33498434      26.63135452 
H      22.64970238       9.37045366      25.96134877 
H      19.66624113      11.80837360      30.66836340 
H      18.38673744      12.52160744      29.62715267 
H      19.16348559      13.50960023      30.91467705 
H      19.07949943      20.16406018      33.04281501 
H      19.03313891      21.86507787      33.60581523 
H      20.45155737      21.25670685      32.68048148 
H      19.47100041      27.99565722      30.06941572 
H      19.35278886      27.14356494      31.64187329 
H      18.15931156      26.79237689      30.34382430 
H      22.08155698      33.08392834      23.56263627 
H      23.14840212      31.69196552      23.95176373 
H      21.69511748      32.00879082      24.94278677 
H      23.65294774      31.58781281      16.71877346 
H      23.66504496      32.82212011      18.01821654 
H      22.16327565      31.90297993      17.67499602 
H      26.52787418      26.45192836      10.35895388 
H      27.04445478      26.25677138      12.07029369 
H      25.89648327      27.55874346      11.61770268 
H      26.64037655      21.11147966       8.80334847 
H      24.89994507      20.88873384       9.19256167 
H      26.04582269      19.50900555       9.33865275 
H      25.88940599      12.90963967      11.57386620 
H      25.89359686      11.23275663      12.20491266 
H      26.69930865      12.54829462      13.13225368 
H      24.24130604       8.14282390      16.47396495 
H      22.61421595       8.90413329      16.51726809 
H      23.35424546       8.25972824      18.02500736 
H       8.90249948      23.71994045      14.57181820 
H       9.55738978      23.81297302      16.24566788 
H       9.10613839      22.23148692      15.54837099 
H       9.59095995      19.38395045      12.52802838 
H      10.53295570      20.74690642      13.23242217 
H       9.45513381      19.77160445      14.27116022 
H       8.40438039      16.19439239      15.92634299 
H       9.87389577      16.96417959      15.23828361 
H       8.77224234      17.91119003      16.27455089 
H       7.98973373      19.25096245      18.90640907 
H       7.17722769      18.44564845      20.28487677 
H       8.57563645      17.65978386      19.46104266 
H       8.23943286      21.84366271      18.28230676 
H       7.42446029      23.15122842      19.19679934 
H       8.37073824      21.89016503      20.06467515 
H      12.36431636      28.69089990      11.86586438 
H      10.92848748      28.00816455      12.69559441 
H      11.81425450      27.02832908      11.48426860 
H       7.70886198      26.87617737      22.63211651 
H       8.59692905      27.90629823      21.46496796 
H       8.68306989      28.26264277      23.21919351 
H       7.12971583      16.52328513      24.86614984 
H       7.39032912      18.17274304      25.51778356 
H       7.74113573      16.74098849      26.53755332 
H       9.85677492      11.26014091      16.02691133 
H       9.73642183      11.31377267      17.81123296 
H      10.65222890       9.99711994      17.01645004 
H      13.78763774      17.41282159       7.88048479 
H      12.43341078      18.41277592       8.49830426 
H      12.66457152      16.74257230       9.10615768 
H      11.11290350      27.16065349      16.57752214 
H      10.47168324      26.99246750      18.25368694 
H      10.73370540      25.53939030      17.24155595 
H       8.89631941      23.31614763      23.46575237 
H       8.60629682      21.60668752      23.94809791 
H       9.04723310      21.99633586      22.26066852 
H       9.68161195      14.17574233      20.43601341 
H       9.75854898      15.95621329      20.27551006 
H       9.33146648      15.22499339      21.85561805 
H      12.18376151      15.27161279      12.87191989 
H      11.64857683      15.82412497      14.48675309 
H      11.88720209      14.07051105      14.18145487 
H      13.17511807      21.48181499      10.75831892 
H      12.89803760      23.19082107      11.26470647 
H      12.41290086      21.84464300      12.34226198 
H      15.49926734      25.57531621       9.16201193 
H      15.44313715      24.08427637      10.17126346 
H      16.92036902      24.47949864       9.24326550 
H      13.71731323      30.60661356      19.41535519 
H      12.05621687      30.64729411      20.09685730 
H      12.60004965      29.24057255      19.11066717 
H      10.92533786      22.48835972      28.13712231 
H       9.50698503      21.38704549      28.12170175 
H      10.22089762      21.97345995      26.57298195 
H      11.37889039      10.44378744      22.07309796 
H      11.55559410      12.23199101      22.20975351 
H      12.37992238      11.15676218      23.38226003 
H      15.14666476      13.00876962      10.44882312 
H      14.80956857      13.54153174      12.13674091 
H      16.11557201      12.35945067      11.81456947 
H      17.22012776      20.03640388       7.42439066 
H      16.28342036      21.43124044       8.04070278 
H      16.11229931      19.83179432       8.82254431 
H      14.69382802      30.87280416      14.87148945 
H      13.61775087      30.29468826      16.18312278 
H      14.15692405      29.15827873      14.90968838 
H      10.34715271      25.31541104      26.54382898 
H      10.98219500      26.29112779      25.18615589 
H      10.96922657      26.96919276      26.85002686 
H      10.72848309      13.17741333      25.32231273 
H      10.71068880      14.91083277      25.76779558 
H      10.84860233      13.65457309      27.04571101 
H      14.33533926      10.86669400      13.95484572 
H      13.92219295      10.93498352      15.69586516 
H      14.66337614       9.45116008      15.00383908 
H      21.13460083      16.87679452       8.23646745 
H      22.30491682      16.16909771       9.39700909 
H      22.16601135      17.94775456       9.24565250 
H      19.73394660      30.57116981      13.09877317 
H      21.25450435      29.62018334      13.10739780 
H      20.55557985      30.19209101      14.65225843 
H      17.01160807      30.04543404      26.59351176 
H      16.60389379      28.52430507      27.44016005 
H      15.34117853      29.77358669      27.17631576 
H      14.14389182      15.84122034      30.60619236 
H      15.60050919      16.85891009      30.84886080 
H      15.69887141      15.39679823      29.82101598 
H      17.83583943       7.82109653      19.01187881 
H      18.93269272       8.32784672      20.33709989 
H      19.27635263       8.83529748      18.65559893 
H      19.65594758       8.35129884      14.34937814 
H      18.32564890       9.38404136      14.98063110 
H      19.24964440       8.32887139      16.09448655 
H      21.73780716      13.50289575       9.99898209 
H      21.25558259      11.79835343      10.26181812 
H      22.54453362      12.52913650      11.27899113 
H      21.87076440      21.87540813       7.23848404 
H      20.48572627      21.15504074       8.13490145 
H      21.93487051      20.16436386       7.76599631 
H      21.50972198      27.07858176       9.21950674 
H      22.71044034      26.72404379      10.50862879 
H      21.42600960      27.95470361      10.77974662 
H      19.27522197      32.06213293      16.02439167 
H      18.65017485      33.06783230      17.36962843 
H      17.71894669      31.63611232      16.80461021 
H      17.11121613      32.79420486      22.73514989 
H      18.59335528      31.89004891      23.20922211 
H      17.04890897      31.63320059      24.09869721 
H      14.95174574      27.57197397      29.27402352 
H      14.36841356      26.49496007      30.58310047 
H      13.81430821      26.24261265      28.88990068 
H      14.81329799      19.51948350      31.54578423 
H      14.24923927      21.12714225      32.09889675 
H      15.98432678      20.87641785      31.70447840 
H      14.96508435      11.18945478      28.73425283 
H      14.16229661      12.48903734      27.78466396 
H      14.95580428      12.87447728      29.34424148 
H      17.61586932       8.27325833      22.88241706 
H      16.69942036       8.11722691      24.41338228 
H      18.31307980       8.90850856      24.41441387 
