646
Properties=species:S:1:pos:R:3 i=57 optimized=T E=-10058.2367466269 pbc="F F F" jobid=246_80-Ag-50_0-000001-PBE
Au      21.91883585      20.20102845      20.89415665 
Ag      24.79950734      20.20264886      21.81242130 
Ag      20.45957208      22.68827217      20.43600736 
Ag      19.74472714      20.94904344      22.72998586 
Au      20.00172664      18.16162614      21.83689006 
Au      21.15303477      23.50362147      23.14104538 
Ag      20.45165758      21.73318860      25.44630200 
Au      20.70541827      18.94463732      24.62407910 
Au      20.92366161      16.12291412      23.69987495 
Au      21.84298056      16.11999016      20.89213005 
Ag      22.75467864      16.12117450      18.08441594 
Ag      23.07851657      18.91310181      17.21573522 
Ag      23.30800950      21.72178331      16.35545974 
Ag      22.65315794      23.47050506      18.60812873 
Au      21.80711617      25.22612786      20.82783232 
Au      23.35644467      22.71744069      21.33940953 
Au      22.63918615      20.98275093      23.63319152 
Au      22.89216546      18.17155222      22.77992187 
Ag      23.78495084      18.15674759      19.96320581 
Au      24.07264994      20.95515177      19.07560559 
Au      20.87353651      13.99570702      19.01212416 
Ag      21.83422175      14.02673649      16.16753467 
Ag      22.15464317      16.88052691      15.29918585 
Ag      22.38520770      19.69898819      14.39640976 
Au      22.64906558      22.54849631      13.60127120 
Ag      21.97732516      24.31142226      15.84738509 
Au      21.17517120      26.07538762      18.11462329 
Ag      20.37674431      27.78884182      20.39704134 
Ag      25.36548768      22.47634545      14.51527411 
Au      24.75858644      24.31995151      16.73838264 
Ag      23.98762579      25.99602430      18.96356248 
Ag      23.13905227      27.77535634      21.23616519 
Ag      22.50109662      26.09581746      23.59239718 
Au      21.82591736      24.33351798      25.79706881 
Au      21.10017709      22.51723449      28.17088290 
Ag      21.46294395      19.72953829      27.41630366 
Ag      21.60627778      16.94651434      26.46321062 
Ag      21.77789676      14.11483570      25.57537912 
Au      22.78594745      13.99801514      22.83993555 
Au      23.71058935      14.11074256      20.02192032 
Au      24.52925607      14.11687506      17.07423675 
Ag      24.94742394      16.87240827      16.21082968 
Au      25.20364771      19.64807129      15.39567814 
Ag      23.63980955      18.94569401      25.60590068 
Ag      23.78210251      16.16561934      24.64999076 
Ag      24.80199414      16.10966054      21.86122603 
Au      25.58916177      16.12839196      19.02483392 
Au      26.00408564      18.90588141      18.12493980 
Ag      26.17212763      21.73631021      17.26097575 
Au      25.58486065      23.53729062      19.51017534 
Au      24.66609058      25.24868974      21.72823525 
Au      24.12294471      23.55688187      24.08680114 
Au      23.30072347      21.81391407      26.30513929 
Au      26.26176572      22.76744588      22.26960951 
Ag      25.49157821      20.97632420      24.59370616 
Au      25.71219647      18.11943289      23.68967235 
Ag      26.69212551      18.11196584      20.83956509 
Au      26.97669313      20.97333866      19.97790358 
Au      27.65938637      20.17484014      22.76107002 
Ag      27.58248101      15.19233773      21.29624318 
Au      28.50744200      17.35274671      18.60623807 
Au      28.76707755      19.97108098      17.72718225 
Au      28.45929882      23.36311728      18.75820419 
Au      27.85126745      25.04249162      20.86828230 
Au      26.63068899      25.03921081      24.20207194 
Ag      25.92058146      23.41347907      26.43071523 
Ag      25.70639083      19.97606496      27.36066543 
Ag      25.86705020      17.23037444      26.63316721 
Ag      26.72929681      15.33627661      24.03949381 
Au      28.44810673      17.45089143      22.99828986 
Au      29.35110647      19.41566675      20.60843687 
Au      29.03658704      22.34509531      21.51374254 
Au      28.00068240      22.42764411      24.49417236 
Au      27.70978943      19.20739514      25.41793466 
Au      25.53154245      13.37915366      22.23502671 
Ag      26.31830575      13.33594317      19.27287665 
Au      27.20356504      15.22071021      16.91090970 
Ag      27.62257703      18.01059614      15.88493438 
Ag      27.73371057      20.89805656      15.02174368 
Au      27.46626103      23.81723029      15.87837524 
Ag      26.85863914      25.73451182      18.17985529 
Au      25.90141873      27.42578372      20.49070526 
Au      25.03720817      27.46141055      23.38010608 
Ag      24.35776812      25.85314942      25.80909804 
Au      23.47319099      24.12476735      28.07148287 
Ag      23.56142476      21.11304996      29.01396412 
Ag      23.62305325      18.10461262      28.34431825 
Au      23.69955122      15.28985611      27.34656043 
Au      24.56089447      13.49493808      25.08504580 
Au      24.31853405      11.61917861      15.33981387 
Ag      24.01913216      14.86105770      14.30136323 
Au      24.23244191      17.63067776      13.46332517 
Au      24.52584875      20.43571874      12.66717807 
Ag      25.19842662      23.27901629      11.54451144 
Ag      24.16402958      25.06972088      14.03647751 
Ag      23.30926880      26.85309392      16.21857248 
Au      22.50151433      28.50384690      18.51013546 
Ag      22.40393821      30.66899466      20.75222225 
Au      21.09941168      28.59783420      23.15633850 
Ag      20.38767780      26.90976376      25.45965484 
Au      19.73585427      25.10963068      27.64381360 
Au      19.50374474      23.64612490      30.53400980 
Au      19.32404254      20.45427575      29.22537979 
Ag      19.49260351      17.69785473      28.33271958 
Au      19.65171008      14.90307240      27.41179760 
Ag      20.38683429      11.85275633      27.02383382 
Ag      20.97219166      11.91876054      23.75631039 
Au      21.83138401      11.92588111      20.93497483 
Au      22.71371956      12.05640012      18.16482338 
Au      29.61320204      14.18277839      23.41643030 
Ag      31.28297350      18.27317320      18.03279918 
Au      30.85888986      24.91581207      20.02210175 
Ag      28.53564933      24.90835877      26.56508841 
Au      27.87906816      18.33916905      28.79739322 
Au      28.95725111      27.69887373      18.89164702 
Au      30.26548015      18.64075504      14.68755125 
Ag      27.97174110      11.93209890      21.51053039 
Au      25.27046273      16.42611411      30.12251235 
Ag      26.00084789      26.11179889      28.29329446 
Ag      26.48132818      26.70166611      15.21171125 
Ag      23.07384772      28.66628078      25.51371118 
Au      21.70822569      18.91578200      30.61794168 
Ag      23.93073410      11.03162345      23.38856779 
Ag      26.98314934      15.72907757      13.84147940 
S      29.59819462      22.75978403      26.31135976 
S      29.37659311      18.28890178      26.99835379 
S      30.60979878      16.27125457      23.03207597 
S      31.74276190      19.52196718      20.03831296 
S      31.12358863      23.58898672      21.94183189 
S      27.91230811      27.13277731      27.22980263 
S      30.75399388      26.35003136      18.15257817 
S      31.37646393      17.00555502      15.97997694 
S      28.80734228      12.01004841      23.79401435 
S      26.54318570      18.31817061      30.73957785 
S      28.09484355      26.50607924      22.84521888 
S      29.77216631      22.12997012      17.07687431 
S      29.14643788      15.09337428      19.29974924 
S      26.86424631      14.89629538      26.50551122 
S      26.13349797      22.11609956      28.60233386 
S      24.17926244      25.66479823      29.81019543 
S      27.28664883      29.21116196      19.55626348 
S      29.32406513      20.21710808      13.22734257 
S      27.51874905      11.17256959      19.26917275 
S      24.01618069      14.49953856      29.67044843 
S      22.69308651      20.94444738      31.33382406 
S      24.93139561      29.69717727      24.29082583 
S      28.22863273      25.36551696      14.14358468 
S      27.94858553      13.84863838      15.05180876 
S      24.47510110      11.14750830      25.79139037 
S      20.58604269      16.84871326      30.41864610 
S      21.31546599      28.47408151      27.17037120 
S      24.99166340      28.57136507      15.57579668 
S      26.19349031      17.12646216      12.03642147 
S      23.23740542       9.96445548      21.30949544 
S      20.23834124      10.15203525      25.34478718 
S      20.67128701      13.26635937      28.95045436 
S      18.48193808      21.64867994      31.24332868 
S      20.45335905      25.71326367      29.93498094 
S      21.07449352      31.02870680      22.71737864 
S      23.87724124      30.49135644      18.85629479 
S      24.51390529      25.58851594      11.62597774 
S      26.38728488      21.19207533      11.26488597 
S      24.24931809      12.59712790      13.20426462 
S      24.42369856      10.48440533      17.40364463 
C      31.27332877      23.00625653      25.60683337 
C      30.70195884      19.49314848      27.38315818 
C      31.54951772      16.70660151      24.54338813 
C      32.77748071      18.53813294      21.18481905 
C      32.62201240      22.56065273      21.72612257 
C      28.99866546      27.60549776      28.64205621 
C      32.21068757      27.46291834      18.29639450 
C      33.10444718      17.06354733      15.35042891 
C      30.30673263      10.94118646      23.77179749 
C      27.64698850      17.68557981      32.06888934 
C      29.79503464      26.47517203      23.52419582 
C      31.54685601      22.19190510      17.53931784 
C      30.95008834      15.01085805      19.62470778 
C      28.61117327      14.64269687      27.02085209 
C      27.71797142      22.05116892      29.53316637 
C      24.83413086      24.57896719      31.13585847 
C      27.96550831      29.98116932      21.07952486 
C      30.50884743      21.62228117      13.25619293 
C      29.03350865      11.48595838      18.28166742 
C      25.26172416      13.17110806      29.44839066 
C      24.02583719      20.48001380      32.50486685 
C      26.30634658      29.99415427      25.46506545 
C      29.86001151      26.11452392      14.51471140 
C      29.77023215      13.88237115      14.86607250 
C      26.18202388      10.53166310      26.04123100 
C      19.28099297      16.98170680      31.70831166 
C      20.39215906      30.05243145      26.97219887 
C      24.56312139      29.10630257      13.86890525 
C      25.58369702      15.92270757      10.78854914 
C      22.10644968       8.61657489      21.83790112 
C      21.51384870       8.90523971      25.79103680 
C      19.42703836      12.74733992      30.19180348 
C      19.30754743      21.16447678      32.80685908 
C      19.35137942      27.01625100      30.59707411 
C      22.09018022      32.03425992      23.86998307 
C      23.38197224      31.74177690      17.61245032 
C      26.04738816      26.53791064      11.26330765 
C      26.14196121      20.55830793       9.56479857 
C      25.86744316      12.21681380      12.42536296 
C      23.66395019       8.83639650      17.16279509 
Au      19.01643223      20.18151043      19.97927775 
Ag      16.14839397      20.19895287      19.08645557 
Ag      21.19868884      20.96408677      18.16826021 
Ag      20.93059992      18.14996784      19.02137540 
Ag      19.79248193      23.49325029      17.74320742 
Ag      20.53919745      21.72332822      15.46513597 
Ag      20.25414398      18.96636951      16.31333297 
Ag      20.00995595      16.13507268      17.18574448 
Ag      19.03672155      16.10954134      19.93048280 
Ag      18.17305613      16.10794907      22.76621628 
Ag      17.86492180      18.88141885      23.69333236 
Au      17.66901736      21.68791417      24.59996703 
Au      18.31799802      23.42386622      22.31565784 
Au      19.03008052      25.17480091      20.00659760 
Ag      17.57790769      22.66303763      19.55070084 
Au      18.34180448      20.97582102      17.27556893 
Ag      18.04043875      18.16194274      18.09550107 
Au      17.14788887      18.13484591      20.93010335 
Ag      16.86494137      20.93897993      21.82993937 
Au      20.00991363      13.94472513      21.88172570 
Ag      19.04416015      14.03597991      24.69654942 
Ag      18.79710372      16.82617878      25.58181454 
Au      18.60061309      19.68031886      26.51370740 
Ag      18.33095167      22.54102915      27.36787911 
Ag      18.97533469      24.31267293      25.06530020 
Au      19.70339962      26.08377541      22.80115297 
Ag      15.61998438      22.43178582      26.47762651 
Ag      16.20607129      24.22528065      24.21858416 
Au      16.87635727      25.89083309      21.94686922 
Ag      17.60800246      27.69422409      19.58028860 
Au      18.25697759      26.03371956      17.28860669 
Au      19.14508777      24.28484904      15.08600399 
Ag      19.91924388      22.51348066      12.75654334 
Ag      19.58143380      19.72269004      13.45880426 
Au      19.35238628      17.01281038      14.47151916 
Au      19.07926637      14.10332455      15.38126203 
Ag      18.08752040      13.99832639      18.06016911 
Au      17.25554760      14.06635757      20.82683147 
Au      16.32507195      14.10695136      23.71694991 
Au      16.00018948      16.80531451      24.63988905 
Ag      15.79654680      19.59021336      25.52714306 
Ag      17.32251692      18.96192448      15.29231097 
Ag      17.15719553      16.15589778      16.22618407 
Au      16.14648808      16.08021892      18.98938061 
Ag      15.32157145      16.06635072      21.80341155 
Au      14.94030432      18.86355273      22.73301858 
Au      14.77702419      21.63038141      23.69465647 
Ag      15.34991577      23.42118392      21.42048825 
Au      16.16232196      25.12506964      19.19781361 
Ag      16.78532352      23.53079064      16.78608916 
Au      17.69279230      21.78795635      14.59878288 
Ag      14.66304710      22.71882380      18.60427416 
Au      15.47785201      20.95947718      16.32629978 
Au      15.19779151      18.11113749      17.16371376 
Au      14.24558916      18.10977167      20.00632263 
Au      13.93977796      20.94458448      20.94202777 
Ag      13.28722462      20.18224275      18.15783019 
Ag      13.35171871      15.19189661      19.63936104 
Ag      12.41930657      17.34092120      22.24546097 
Au      12.09570619      19.92282858      23.31096811 
Au      12.51346610      23.29275100      22.20977042 
Ag      13.21127996      24.97117669      20.05985782 
Au      14.19465912      24.84004467      16.57201866 
Ag      14.97024349      23.31364823      14.37342785 
Ag      15.22290994      20.02843826      13.47316447 
Au      15.11044699      17.31352030      14.19500032 
Au      14.22309690      15.27819164      16.96257874 
Ag      12.41846104      17.44774984      17.88143793 
Au      11.63507223      19.33626427      20.29678017 
Au      11.93975519      22.32390663      19.48870978 
Au      12.94029998      22.22046772      16.22299904 
Au      13.22874501      19.26866738      15.47406007 
Ag      15.39101234      13.29389319      18.69553294 
Au      14.65696522      13.23005155      21.59078571 
Ag      13.57699636      15.09426375      23.83034384 
Au      13.39145455      17.90627699      24.95295069 
Au      13.28943945      20.85417102      25.97149097 
Au      13.49266319      23.73673458      25.00245209 
Ag      14.09768977      25.62982351      22.80069761 
Au      14.92550457      27.36421386      20.53728736 
Ag      15.57997386      27.28509529      17.46828649 
Ag      16.51545323      25.79085082      15.02098216 
Au      17.47136349      23.97765780      12.82720274 
Ag      17.47024113      21.10044533      11.87796777 
Au      17.34511702      18.17918840      12.54132990 
Au      17.33578200      15.29262696      13.48860308 
Ag      16.27144659      13.47949852      15.78573369 
Ag      16.74701287      11.64421649      25.49215416 
Ag      16.78481651      14.77055054      26.51025016 
Ag      16.76694989      17.57393171      27.38788003 
Ag      16.53589314      20.35938091      28.32037240 
Ag      15.59070664      23.21833119      29.35631270 
Ag      16.86030285      25.06218368      26.93568994 
Ag      17.54858363      26.80302525      24.66613698 
Au      18.23551056      28.43056279      22.33361241 
Ag      18.48960066      30.55072086      20.07427855 
Ag      19.60551977      28.58797163      17.62739771 
Au      20.50985728      26.81950584      15.48095216 
Ag      21.24384182      25.11376013      13.19436741 
Ag      21.64587313      23.54182089      10.48338294 
Au      21.68753228      20.47029686      11.66526176 
Ag      21.51319494      17.67412267      12.55010752 
Au      21.16440499      14.92105915      13.48470342 
Ag      20.48845603      11.84219745      13.90907611 
Ag      19.93259556      11.95436081      17.11935070 
Ag      19.10266126      11.91296805      19.95487545 
Au      18.14679415      12.03649581      22.73622322 
Ag      11.43444854      14.26690094      17.47149971 
Au       9.48465100      18.27921095      22.85424565 
Ag      10.28907920      24.82592125      20.80031325 
Au      12.29884689      24.98129310      14.14167970 
Au      12.95870912      18.37849315      12.14567646 
Ag      12.00034212      27.50413032      21.72321450 
Ag      10.81856089      18.80490084      25.97722345 
Ag      12.87165010      11.83090219      19.18233393 
Au      15.58192119      16.45721176      10.81543475 
Au      15.05985410      26.37409076      12.51472902 
Ag      14.47203613      26.58454489      25.78576385 
Au      17.62556773      28.71319586      15.27220861 
Au      19.29283495      18.94275962      10.28050720 
Ag      17.02518528      10.98636040      17.43281932 
Au      13.88781127      15.72772095      27.08594152 
S      11.30214151      22.88497484      14.46602891 
S      11.49115083      18.36391919      13.98130127 
S      10.21513964      16.28411657      17.91036104 
S       9.24652482      19.50729963      20.86632259 
S       9.97234236      23.58581598      18.75286612 
S      13.14494348      27.13434058      13.67030950 
S      10.12579301      26.32053836      22.67953596 
S       9.52087545      17.06531489      24.86724228 
S      12.08897319      12.01545482      16.91616584 
S      14.28186142      18.33298571      10.19316598 
S      12.91541463      26.42192464      17.98490332 
S      10.97159548      22.09427250      23.74114870 
S      11.86129283      14.98003627      21.66715641 
S      14.11197699      15.03845753      14.50571203 
S      14.85727079      22.12433174      12.15264428 
S      16.93824115      25.76605482      11.25140055 
S      13.51179249      29.27373173      21.05966790 
S      11.60008586      20.38384388      27.64932808 
S      13.49604291      11.09314631      21.37651119 
S      16.82264641      14.50537135      11.22562244 
S      18.31685916      20.97670905       9.54853479 
S      15.92991197      29.61033495      16.64617654 
S      12.69755313      25.20158585      26.75662339 
S      13.00184336      13.86910969      25.92640842 
S      16.41404962      11.10688599      15.08383158 
S      20.42264035      16.87474987      10.44346608 
S      19.40344701      28.23332990      13.79185411 
S      15.90692436      28.49999515      25.45375778 
S      14.67733733      17.25959008      28.70375095 
S      17.63822418       9.96557601      19.53340510 
S      20.65597728      10.12236623      15.58048698 
S      20.26672082      13.22820832      11.94488941 
S      22.66091775      21.52690643       9.63737364 
S      20.49254016      25.61016140      10.86767054 
S      19.82397627      31.02638362      18.13992784 
S      16.95922164      30.45602557      21.94257569 
S      16.26258594      25.52007014      29.32487156 
S      14.60738736      21.05907819      29.70363198 
S      16.79468822      12.57154597      27.70866837 
S      16.51192201      10.38306582      23.44034742 
C       9.63373346      23.20181510      15.15308788 
C      10.16888368      19.58216556      13.63685005 
C       9.21978666      16.66205360      16.41495077 
C       8.17981754      18.53429596      19.74254078 
C       8.46922050      22.54625666      18.90275593 
C      12.07098122      27.80559760      12.33608904 
C       8.68354278      27.43029140      22.38681938 
C       7.81606490      17.20372228      25.54595783 
C      10.55107234      10.99868102      16.90186861 
C      13.17212365      17.68682798       8.87650528 
C      11.25709311      26.75053183      17.26655260 
C       9.26001804      22.23303998      23.10649134 
C      10.03637281      14.83595644      21.47204728 
C      12.37009719      14.82818768      13.97275340 
C      13.23558719      22.05086581      11.28683938 
C      16.25939411      24.83650563       9.82258320 
C      12.92023062      29.89566417      19.43843762 
C      10.48658559      21.83818623      27.53763516 
C      12.01300816      11.30830503      22.43547266 
C      15.57573038      13.19054514      11.50969327 
C      16.93127697      20.50705958       8.44213295 
C      14.57158694      30.12862993      15.52717602 
C      11.07985343      25.92224507      26.28399736 
C      11.18952325      13.90742951      26.20598606 
C      14.77126354      10.30948770      14.90074199 
C      21.73244509      17.03942676       9.16321001 
C      20.35817639      29.80318553      13.77657494 
C      16.36025666      29.01171366      27.16050672 
C      15.14738431      16.16221323      30.10355366 
C      18.74786194       8.59028432      19.02099710 
C      19.38467754       8.87438231      15.13291584 
C      21.55569632      12.72964738      10.74311240 
C      21.76168795      21.12143546       8.08897938 
C      21.50464201      26.94980477      10.12673348 
C      18.76704137      32.09177290      17.07791295 
C      17.48310591      31.69315526      23.18753781 
C      14.72213470      26.47396077      29.63316832 
C      14.96174329      20.61700835      31.45052021 
C      15.18158586      12.13466822      28.47375999 
C      17.35124914       8.76645111      23.62521676 
H      31.68787397      22.01898928      25.36827191 
H      31.89902072      23.49240303      26.36429262 
H      31.24743684      23.61318794      24.69606059 
H      31.39159376      19.49364027      26.52973218 
H      31.23113589      19.15638544      28.28138113 
H      30.29848086      20.50142275      27.52270446 
H      31.94781842      17.71805564      24.39508965 
H      32.37801647      15.99783430      24.65355573 
H      30.91356253      16.69324412      25.43400760 
H      33.76205707      18.39527296      20.72450282 
H      32.32408487      17.56808367      21.41289310 
H      32.89008168      19.11067817      22.11390854 
H      33.48715885      23.22616199      21.63009969 
H      32.54121661      21.89871621      20.85788018 
H      32.72551670      21.95236631      22.63350987 
H      29.97399329      27.90349226      28.23979672 
H      29.13418941      26.78078334      29.34722532 
H      28.54408102      28.45774908      29.16045826 
H      32.11330726      28.24576598      17.53515930 
H      33.10914371      26.86597686      18.10171331 
H      32.27288673      27.91449595      19.29013317 
H      33.11604098      16.68236291      14.32281719 
H      33.71269701      16.41228307      15.98926691 
H      33.50950783      18.07905537      15.37175166 
H      29.96811943       9.89824593      23.76225457 
H      30.88783132      11.12939416      24.68173089 
H      30.92636473      11.13218459      22.89126701 
H      28.38222652      18.46588448      32.29670957 
H      28.15836264      16.76956757      31.76088039 
H      27.02828124      17.48937192      32.95234129 
H      30.46858864      26.93485521      22.79050242 
H      30.12577345      25.45262412      23.72712963 
H      29.78487372      27.06050641      24.45225167 
H      32.09428137      21.51127332      16.87566255 
H      31.69270618      21.89059471      18.58089377 
H      31.89000809      23.22338390      17.39528608 
H      31.47757588      15.14314885      18.67221156 
H      31.17075518      14.02098923      20.04301111 
H      31.25586043      15.78131286      20.33894789 
H      28.95657049      13.68810733      26.60655380 
H      28.64780037      14.61409081      28.11656107 
H      29.24813664      15.45553291      26.65896417 
H      27.87196217      23.01806058      30.02724075 
H      28.54984968      21.85161208      28.84983803 
H      27.64885148      21.25396502      30.28186839 
H      23.97621384      24.18066585      31.69156559 
H      25.46136749      25.18284787      31.80150591 
H      25.41033408      23.74776084      30.71398726 
H      28.79159274      30.64398414      20.79918864 
H      28.30341287      29.21887016      21.79036040 
H      27.15186564      30.56418628      21.52888096 
H      31.43601292      21.32627102      12.75389424 
H      30.71556623      21.95060756      14.28064501 
H      30.03285702      22.44331913      12.70537176 
H      28.76698505      11.36419742      17.22426171 
H      29.79986277      10.75294705      18.55693260 
H      29.40842976      12.50374151      18.43881369 
H      24.72033895      12.29521212      29.06859969 
H      25.71432310      12.94219020      30.41929416 
H      26.02478358      13.46995548      28.71972446 
H      24.55145352      21.40415053      32.77553545 
H      24.73390802      19.78003305      32.04942119 
H      23.58032020      20.03650980      33.40207621 
H      27.22205848      30.15933151      24.88520303 
H      26.45957425      29.14749742      26.14175618 
H      26.06761339      30.89585428      26.04129929 
H      29.96638761      27.02648451      13.91578100 
H      30.63537871      25.39441312      14.22649541 
H      29.96539800      26.35071760      15.57821912 
H      30.01674786      13.48880427      13.87281752 
H      30.20070976      13.23122278      15.63637911 
H      30.17424778      14.89353115      14.98065336 
H      26.15262997       9.43570542      26.05938710 
H      26.54385390      10.90630285      27.00632346 
H      26.85531802      10.87447327      25.24897147 
H      18.61680796      16.11652540      31.58943981 
H      18.69996339      17.90299118      31.59630130 
H      19.74801819      16.95062280      32.69915448 
H      19.49266297      29.99436791      27.59722350 
H      20.09539655      30.21783223      25.93098241 
H      21.01705424      30.88368281      27.31845179 
H      25.45042828      29.54357447      13.39681571 
H      23.78138196      29.87183951      13.94473962 
H      24.19401645      28.27146989      13.26216751 
H      25.03787893      16.48212926      10.01930713 
H      24.91606605      15.17960497      11.23888123 
H      26.44647754      15.42269736      10.33311078 
H      21.60185750       8.22434814      20.94674079 
H      21.35727776       8.97505671      22.55258539 
H      22.70889740       7.82291371      22.29554400 
H      21.59901057       8.19100552      24.96365585 
H      21.17759771       8.37880402      26.69143845 
H      22.48705331       9.37382998      25.97145818 
H      19.77859162      11.82189488      30.66313693 
H      18.44784058      12.58295055      29.72721125 
H      19.36199322      13.53889694      30.94812757 
H      18.94744735      20.16553372      33.08014222 
H      19.01651143      21.88522522      33.57971916 
H      20.39611181      21.14907025      32.68690324 
H      19.64333516      27.95230010      30.10499234 
H      19.52214135      27.09579877      31.67706164 
H      18.29848629      26.78910829      30.39420434 
H      22.12286291      33.05701995      23.47653896 
H      23.10491350      31.63444641      23.96450381 
H      21.60141325      32.03531392      24.85126837 
H      23.80595912      31.42841242      16.65047535 
H      23.81223269      32.70546329      17.90995629 
H      22.29152113      31.82246231      17.54223249 
H      26.28477195      26.41098073      10.20100572 
H      26.88621432      26.19580718      11.87848538 
H      25.85369396      27.59749830      11.46784887 
H      26.84549522      21.08029641       8.90509503 
H      25.11388052      20.72468757       9.22396309 
H      26.37177649      19.48592121       9.57706963 
H      25.92342127      12.77564885      11.48346942 
H      25.90631294      11.14213149      12.21471437 
H      26.69954659      12.50474705      13.07657428 
H      24.37898778       8.21257478      16.61357163 
H      22.71800569       8.90815619      16.61422777 
H      23.49774790       8.41700579      18.16265874 
H       9.04675704      23.75628543      14.41250142 
H       9.68967607      23.75291062      16.09762033 
H       9.16851025      22.22417521      15.33125900 
H       9.57112259      19.21547142      12.79466807 
H      10.58121660      20.57146283      13.41342675 
H       9.54147653      19.64034983      14.53495651 
H       8.49715655      15.85515446      16.24984028 
H       9.85097278      16.78678753      15.52885487 
H       8.67782903      17.59750676      16.60294846 
H       8.09712624      19.10068657      18.80648275 
H       7.18992345      18.44066136      20.20302574 
H       8.60694764      17.54838207      19.53190186 
H       8.41739130      21.89866558      18.01871615 
H       7.59344064      23.20513628      18.92411057 
H       8.49197680      21.92308299      19.80262482 
H      12.53314409      28.72708196      11.96318922 
H      11.09281261      28.03341616      12.77523955 
H      11.95343083      27.08936754      11.51839631 
H       7.76910570      26.87440883      22.62498297 
H       8.63787156      27.77654091      21.35058213 
H       8.76787853      28.29393035      23.05672991 
H       7.13790411      16.61151170      24.92105509 
H       7.47743116      18.24300773      25.57626563 
H       7.83109423      16.79303258      26.56262217 
H      10.02255037      11.18926108      15.96047002 
H       9.89420527      11.24279695      17.74149248 
H      10.83138159       9.94018493      16.95288725 
H      13.78669466      17.48759724       7.99078514 
H      12.43097358      18.46111546       8.64709534 
H      12.66804336      16.76957757       9.19261327 
H      11.39012461      27.19698731      16.27453474 
H      10.73272400      27.45089475      17.92825912 
H      10.68551674      25.81997194      17.18928027 
H       8.92255969      23.25719388      23.30989467 
H       8.63173800      21.51189526      23.64378125 
H       9.21059422      22.02680705      22.03366905 
H       9.79923396      13.79591538      21.21804359 
H       9.69163241      15.49751558      20.67050888 
H       9.56177153      15.11373559      22.41995734 
H      12.34686744      14.86314413      12.87663585 
H      11.73657323      15.62336356      14.37756595 
H      12.02934625      13.84930641      14.33207092 
H      13.29651071      21.29299121      10.49780493 
H      13.03511121      23.03674580      10.85080822 
H      12.43638220      21.79443086      11.98960267 
H      15.71533042      25.53214011       9.17431651 
H      15.60652067      24.02313667      10.15892133 
H      17.12089787      24.41882537       9.28636670 
H      13.70892487      30.53237698      19.01870908 
H      12.01322004      30.48838659      19.60356304 
H      12.71661373      29.06946937      18.74804229 
H      10.98560900      22.68346673      28.02783793 
H       9.55663130      21.59650281      28.06553210 
H      10.27432559      22.09759579      26.49409482 
H      11.27260184      10.54877205      22.16047344 
H      11.59181994      12.31372368      22.32453846 
H      12.32737082      11.16200386      23.47618234 
H      15.10182485      12.94411499      10.55306258 
H      14.82650376      13.50750282      12.24325402 
H      16.11649945      12.31907915      11.90013903 
H      17.33579084      20.06601242       7.52440108 
H      16.38567946      21.42687394       8.19803275 
H      16.25096819      19.80187933       8.93102007 
H      14.91876561      30.95681111      14.89972940 
H      13.74558591      30.47122801      16.16266682 
H      14.22804582      29.29745606      14.90274151 
H      10.30848194      25.15992945      26.44572011 
H      11.05939964      26.23559862      25.23522466 
H      10.88967176      26.78279195      26.93627719 
H      10.75717000      13.09434854      25.60973608 
H      10.75205879      14.86012733      25.88839717 
H      10.98291040      13.73172287      27.26735514 
H      14.42870995      10.48689468      13.87400834 
H      14.03745479      10.72720388      15.59881344 
H      14.87405339       9.23135138      15.06764475 
H      21.26984859      17.03805950       8.16977949 
H      22.39259607      16.16833977       9.25944881 
H      22.31666471      17.95483566       9.30423071 
H      19.76951908      30.56596445      13.25421945 
H      21.28725184      29.61209843      13.22579141 
H      20.59475232      30.13701138      14.79251404 
H      17.12214253      29.79644926      27.08127973 
H      16.76283063      28.17486366      27.74273042 
H      15.47381235      29.41997875      27.65923253 
H      14.23809247      15.73478673      30.54096730 
H      15.65486131      16.78492104      30.85069393 
H      15.81906491      15.36005981      29.77964196 
H      18.15660810       7.83132859      18.49601341 
H      19.17588080       8.15037340      19.92993659 
H      19.55811233       8.94349793      18.37339340 
H      19.72895513       8.34580951      14.23659509 
H      18.41194857       9.34152192      14.94251742 
H      19.29362057       8.16158104      15.96096862 
H      21.65282315      13.53225441      10.00205597 
H      21.21889015      11.81259111      10.24481153 
H      22.51677945      12.55151824      11.23835988 
H      22.07338120      21.83808452       7.32019973 
H      20.67763180      21.17239948       8.23535560 
H      22.04346736      20.10804241       7.77968641 
H      21.38664668      26.92003821       9.03751462 
H      22.56276052      26.84212067      10.38998397 
H      21.11781154      27.90227229      10.50871687 
H      19.25904516      32.19735571      16.10373325 
H      18.68087385      33.07660835      17.55068015 
H      17.77377396      31.65201120      16.93737829 
H      17.06607366      32.66300697      22.89031726 
H      18.57492425      31.75924640      23.25315294 
H      17.05954962      31.38775243      24.15217433 
H      14.92325450      27.53103897      29.42297558 
H      14.45497864      26.35876507      30.68976441 
H      13.89834616      26.12773911      29.00041836 
H      14.77489632      19.54236595      31.56421462 
H      14.27452875      21.17414922      32.09777924 
H      15.99687860      20.84844069      31.72462591 
H      15.16352588      11.05369702      28.65283666 
H      14.34417104      12.42490286      27.83035747 
H      15.10496155      12.66256766      29.43176983 
H      17.54937213       8.38105703      22.61768672 
H      16.66532973       8.09061403      24.15007914 
H      18.28658524       8.86208327      24.18803629 
