646
Properties=species:S:1:pos:R:3 i=107 optimized=T E=-10058.2553539908 pbc="F F F" jobid=246_80-Ag-50_0-000006-PBE
Ag      21.87563284      20.18837857      20.92641492 
Ag      24.75583528      20.20142551      21.84564949 
Au      20.47183969      22.70175157      20.46106062 
Au      19.72250238      20.95106848      22.73680083 
Ag      19.97721547      18.17292824      21.84546863 
Au      21.14926434      23.49741050      23.20735614 
Ag      20.38373004      21.74980832      25.44155915 
Ag      20.68748709      18.94231526      24.63811796 
Au      20.89010824      16.18373659      23.70663307 
Au      21.86414885      16.11480865      20.92872140 
Ag      22.71430240      16.08558612      18.10616325 
Ag      23.03622077      18.87553749      17.23208504 
Ag      23.32729631      21.70035552      16.37876471 
Ag      22.63668466      23.44855553      18.61947556 
Au      21.85039263      25.24345548      20.92282555 
Ag      23.33103739      22.67770904      21.36541113 
Au      22.61956164      20.96840028      23.65945104 
Au      22.87893108      18.17881578      22.79211798 
Ag      23.75809182      18.14560601      20.00286312 
Au      24.05651242      20.92003189      19.12005206 
Au      20.89566667      13.97146538      19.06579713 
Ag      21.78164363      14.04291735      16.22952138 
Au      22.08401123      16.84110552      15.30723351 
Au      22.35596012      19.68263813      14.40560906 
Au      22.70116050      22.50686349      13.62686115 
Au      21.93801427      24.32384736      15.88311195 
Ag      21.17467844      26.07507284      18.15115382 
Ag      20.49224224      27.83568228      20.47600449 
Ag      25.41615518      22.45690950      14.52969633 
Au      24.83371203      24.24785941      16.75341296 
Au      24.00758116      25.95990044      19.02964284 
Ag      23.22063214      27.74576543      21.31347003 
Ag      22.55810593      26.06036482      23.67638270 
Ag      21.75799727      24.34416636      25.88152730 
Au      20.98752376      22.52832419      28.14541816 
Ag      21.37792761      19.71964691      27.43758014 
Ag      21.60974889      16.94081798      26.51454974 
Au      21.76502473      14.12116407      25.55588081 
Ag      22.77226297      13.99595266      22.79853429 
Ag      23.63004553      14.02954902      20.01306252 
Ag      24.53476497      14.00833270      17.11015640 
Ag      24.92396871      16.79154021      16.25186354 
Au      25.17045102      19.63159497      15.42094452 
Au      23.56330220      18.90663253      25.63056409 
Ag      23.71765191      16.14190622      24.67152335 
Au      24.73736439      16.08283453      21.88904692 
Au      25.50927862      16.05262119      19.03201303 
Au      25.94048488      18.81280724      18.16453971 
Ag      26.15574324      21.65243891      17.25647657 
Au      25.54393422      23.45847912      19.51747520 
Au      24.67271379      25.18864345      21.76837998 
Ag      24.07699144      23.50468973      24.12189773 
Au      23.20722243      21.80652523      26.34143277 
Au      26.26287069      22.72931400      22.30099440 
Au      25.48620924      20.96780781      24.62199189 
Ag      25.71458394      18.13550045      23.73454864 
Ag      26.65079870      18.09292848      20.88426670 
Au      26.97136722      20.90956429      20.02788340 
Ag      27.59000336      20.16945334      22.76197436 
Ag      27.51973886      15.25345519      21.31086706 
Au      28.50653222      17.34361275      18.63755433 
Au      28.70761488      19.92325705      17.74824301 
Au      28.41202252      23.30390133      18.82379410 
Au      27.75958145      24.95368970      20.89120617 
Au      26.67404687      24.88374752      24.31320663 
Au      26.01465086      23.35337647      26.48685688 
Au      25.57041413      19.97767652      27.43417063 
Ag      25.79861636      17.28307283      26.66989892 
Au      26.62846668      15.36623080      24.01331791 
Au      28.44767036      17.48690764      23.03435468 
Ag      29.32883743      19.33314466      20.66776563 
Ag      29.04506461      22.29647509      21.53618337 
Ag      28.07241183      22.32981223      24.58783942 
Au      27.68487850      19.35073884      25.48403095 
Au      25.50652281      13.31705523      22.22069543 
Au      26.26900139      13.36174248      19.29626328 
Ag      27.27320438      15.11724981      17.03598053 
Ag      27.54547827      17.94818906      15.93365118 
Ag      27.70989666      20.77236180      14.96306205 
Ag      27.59392509      23.75219246      15.96417842 
Ag      26.84894270      25.70924849      18.19852289 
Ag      25.97899158      27.40355569      20.50288695 
Ag      25.15619469      27.36462385      23.50230573 
Au      24.34021613      25.74744358      25.88534654 
Au      23.42884710      23.98492487      28.15524368 
Ag      23.40271697      21.13217466      29.07619291 
Ag      23.58189877      18.11032516      28.41602246 
Ag      23.70716007      15.17895594      27.37558542 
Au      24.49897657      13.44654134      25.04143217 
Au      24.30467060      11.53216893      15.46282656 
Au      23.92429429      14.81205652      14.37526980 
Au      24.19342857      17.57308468      13.51911147 
Ag      24.53424115      20.39571837      12.65629835 
Ag      25.38596163      23.24640647      11.61421330 
Au      24.16623580      25.05097313      14.04941022 
Au      23.31595372      26.76681001      16.26800647 
Ag      22.63431368      28.48302858      18.50495616 
Au      22.44901207      30.62580866      21.00966465 
Ag      21.18590455      28.57981159      23.27026682 
Ag      20.35429336      26.90906244      25.50825976 
Au      19.59109333      25.09927877      27.68495727 
Ag      19.42573064      23.65564382      30.46186582 
Au      19.24405743      20.48290814      29.25477066 
Au      19.43180972      17.71106768      28.35361968 
Au      19.66543758      14.92766462      27.42955440 
Au      20.53850201      11.73390823      27.04808378 
Ag      20.93381668      11.93857745      23.77654905 
Ag      21.80251955      11.91560326      20.97473780 
Ag      22.68151702      11.97562949      18.17374547 
Ag      29.50489033      14.46380228      23.41982137 
Ag      31.28663376      18.43656235      18.18021456 
Au      30.74776468      24.90967205      20.12444193 
Ag      28.60579117      24.89987255      26.58911067 
Ag      27.83004432      18.40287462      28.62347460 
Au      28.91429944      27.70211371      18.87705233 
Ag      30.23582226      18.78504679      14.98034487 
Au      28.05780681      11.80440834      21.80497649 
Au      25.34947161      16.51892189      30.14300414 
Au      25.99879877      26.37197808      28.30216502 
Ag      26.43707239      26.64275891      15.32385231 
Ag      23.16266611      28.49237548      25.59064817 
Au      21.72246390      18.96420165      30.69984406 
Ag      23.85313443      10.99888069      23.19212313 
Ag      26.86321066      15.79784638      13.94977082 
S      29.79190587      22.81821529      26.34083402 
S      29.44087965      18.28012409      26.83105204 
S      30.71445069      16.48898111      22.90819449 
S      31.72451047      19.80163137      20.11542137 
S      31.05176228      23.69361599      22.11017127 
S      27.88994190      27.15437012      27.12181289 
S      30.65541544      26.25534852      18.17946730 
S      31.41608845      17.06623156      16.19751889 
S      28.91613196      12.18660799      23.97373895 
S      26.68059106      18.37605812      30.75202881 
S      27.81047667      26.48846413      22.81750195 
S      29.64568080      22.12686443      17.07089252 
S      29.07768271      15.07487519      19.30787799 
S      26.78604712      14.97884284      26.44998145 
S      26.14780832      22.08676225      28.60539842 
S      24.17235306      25.76332785      29.65960763 
S      27.28423273      29.27183313      19.48970721 
S      29.45528791      20.29033795      13.27706454 
S      27.30726636      11.17572352      19.66242624 
S      24.05288943      14.59862761      29.77828894 
S      22.71228109      20.97155446      31.45229003 
S      24.85552305      29.68479042      24.26836852 
S      28.17429306      25.37478957      14.19128972 
S      27.91074358      13.88079382      15.00255106 
S      24.44935720      11.06083253      25.58274462 
S      20.58854763      16.91950219      30.37057109 
S      21.32392165      28.45406845      27.19259959 
S      24.98204491      28.52748047      15.87977679 
S      26.19172143      17.29018987      12.13499389 
S      23.16771742       9.85794738      21.14279365 
S      20.26907575      10.11703551      25.36215564 
S      20.68163583      13.21723839      28.87734274 
S      18.38174940      21.63803426      31.25316807 
S      20.44380371      25.76514218      29.89842009 
S      21.05537901      31.04262612      22.86335235 
S      23.90929433      30.52976382      19.17374057 
S      24.60366499      25.52609672      11.68382677 
S      26.44166816      21.12860793      11.23426852 
S      24.10864540      12.56234238      13.35473278 
S      24.50602061      10.40285955      17.50791414 
C      31.45992142      23.16486238      25.66408162 
C      30.81003355      19.44763625      27.18159982 
C      31.72597774      16.92608931      24.37315012 
C      32.88831726      18.88309700      21.19594395 
C      32.63435354      22.78656799      21.93277779 
C      29.00634593      27.79405080      28.43758971 
C      32.15409765      27.31975907      18.24674399 
C      33.14085279      17.16809486      15.55592545 
C      30.49651869      11.24208135      23.98746961 
C      27.83805775      17.68071746      32.00388580 
C      29.50440178      26.86896976      23.41623165 
C      31.44779082      22.30426507      17.38137928 
C      30.89849102      14.97804955      19.53179523 
C      28.52793444      14.77112927      26.99390578 
C      27.84757640      21.97185038      29.28312874 
C      24.91985305      24.82416531      31.04777850 
C      27.95985043      30.09288234      20.98896141 
C      30.54153241      21.77040776      13.35990758 
C      28.79078910      11.24783653      18.58514477 
C      25.28684704      13.24640689      29.60632278 
C      24.10893924      20.48771359      32.53751948 
C      26.20489212      30.12633773      25.43328868 
C      29.79321511      26.18824893      14.48274536 
C      29.71898934      14.00334702      14.70979530 
C      26.14555676      10.38237794      25.72644107 
C      19.27692037      16.96268697      31.65632537 
C      20.49986918      30.08355696      26.97164880 
C      24.54055694      29.21053558      14.23172235 
C      25.67714223      16.11702965      10.81656946 
C      22.04565900       8.52341845      21.73003802 
C      21.52588532       8.81803777      25.68060541 
C      19.40689974      12.63746571      30.06146382 
C      19.23309108      21.15396026      32.80538083 
C      19.37520715      27.11664095      30.51803750 
C      22.06814754      32.06980773      23.99924032 
C      23.42825051      31.92657978      18.08562924 
C      26.07587733      26.58542312      11.39901064 
C      26.05533114      20.65671210       9.50239822 
C      25.70119555      12.27693076      12.48887530 
C      23.75864376       8.74732050      17.25507817 
Ag      19.01813628      20.21095514      19.99365731 
Ag      16.15841118      20.21383852      19.05424206 
Ag      21.20350403      20.93922881      18.21422864 
Ag      20.89122529      18.16475044      19.05073735 
Au      19.76598041      23.49848900      17.74952342 
Au      20.54355939      21.73639692      15.55755583 
Ag      20.20139247      18.94177584      16.30898892 
Ag      19.96151834      16.15755604      17.17763880 
Au      19.04244824      16.16202276      19.97197786 
Ag      18.11068642      16.14613261      22.80212448 
Au      17.83230651      18.89660304      23.69858367 
Ag      17.61934966      21.69055117      24.55133117 
Ag      18.29747865      23.46319567      22.29393241 
Au      19.07886439      25.22202531      20.05698616 
Au      17.56350638      22.70793034      19.54624011 
Ag      18.28491482      20.98975788      17.27305901 
Ag      18.01379783      18.19731761      18.11880646 
Au      17.09544276      18.15734188      20.89168921 
Ag      16.82975384      20.93955314      21.79836006 
Au      20.01067640      13.93783535      21.89628912 
Au      19.04743151      14.05046494      24.65109096 
Au      18.73650059      16.86646562      25.59850037 
Au      18.54473169      19.71544645      26.50168155 
Ag      18.24649475      22.55187681      27.32947292 
Ag      18.95457466      24.32690326      25.05988250 
Au      19.74528860      26.11501821      22.83241837 
Au      15.57927238      22.44274037      26.38374728 
Au      16.21835229      24.23625870      24.14038330 
Ag      16.94986727      25.97876649      21.93512008 
Au      17.76728009      27.74584505      19.67768519 
Au      18.38042452      26.08451304      17.26547552 
Ag      19.09542607      24.32681495      15.06573520 
Au      19.90675735      22.55860582      12.81960904 
Ag      19.56272674      19.70986878      13.52847847 
Ag      19.28289685      16.96018177      14.41821043 
Ag      19.07486131      14.15086337      15.31128403 
Au      18.12921718      14.06188954      18.10761599 
Au      17.25608450      14.09840869      20.91653996 
Au      16.30422442      14.09838150      23.80022357 
Ag      15.86307658      16.82850015      24.69695598 
Ag      15.71576194      19.60048969      25.52568981 
Au      17.31187794      18.96172865      15.35516099 
Ag      17.13936207      16.21703509      16.22807075 
Ag      16.12429947      16.07894988      19.00145307 
Ag      15.31675348      16.08351564      21.85775687 
Au      14.92787338      18.86479602      22.77163441 
Ag      14.73715108      21.66004118      23.64502884 
Au      15.35416089      23.45335478      21.36937099 
Au      16.17338065      25.23258596      19.18122824 
Ag      16.80963294      23.56086047      16.79511483 
Au      17.67594346      21.79401786      14.59129189 
Au      14.68153347      22.74842085      18.63353889 
Ag      15.41403564      21.04530353      16.26077913 
Ag      15.14846105      18.15663898      17.13237585 
Ag      14.28029494      18.12266644      20.00948905 
Ag      13.91278638      20.93741158      20.93631891 
Au      13.32810257      20.21635792      18.15622037 
Ag      13.34480471      15.20445116      19.58010650 
Au      12.45094517      17.39187846      22.23488221 
Au      12.10051999      19.98571046      23.08246838 
Au      12.55443157      23.29477778      22.14835101 
Ag      13.17007801      25.05393641      20.01673090 
Ag      14.21365096      25.02231102      16.73763471 
Au      14.95955934      23.48987060      14.51695759 
Au      15.19992094      20.03240236      13.49794603 
Au      14.96913238      17.41439732      14.22196619 
Au      14.17656404      15.35350380      16.93474815 
Au      12.44415613      17.53686339      17.89602979 
Ag      11.57005813      19.32745956      20.20098220 
Ag      11.92745919      22.37781604      19.41162954 
Ag      12.87412662      22.43571030      16.42568004 
Ag      13.08901323      19.37433642      15.45146717 
Au      15.39649647      13.30872667      18.69477298 
Au      14.67387533      13.27940906      21.62798903 
Ag      13.54895650      15.10984662      23.86999332 
Ag      13.26567939      18.06580655      24.98401908 
Au      13.22465393      20.90972771      25.92480955 
Au      13.46453606      23.79319797      24.97613707 
Au      14.14222411      25.69399910      22.76692389 
Au      15.01115161      27.47956568      20.49939263 
Au      15.80428815      27.46204064      17.52788496 
Ag      16.53545746      25.83791085      15.10604431 
Ag      17.40360417      24.00727518      12.78642689 
Au      17.63050802      21.06906968      11.87658113 
Ag      17.29458368      18.17179819      12.57798677 
Ag      17.13014826      15.30323569      13.52056584 
Au      16.35743289      13.56535109      15.85844299 
Au      16.45918825      11.53796357      25.48482876 
Au      16.85886765      14.80628888      26.54998184 
Au      16.69531316      17.55396453      27.48554669 
Au      16.43115677      20.40329626      28.24395327 
Ag      15.53309392      23.21497464      29.32275667 
Ag      16.70280515      25.09150953      26.86446813 
Ag      17.58577778      26.80970298      24.64920546 
Ag      18.34306153      28.53933129      22.42055462 
Au      18.43522226      30.66991535      20.02133090 
Ag      19.72873373      28.58036023      17.69408441 
Ag      20.55452992      26.90170054      15.43802912 
Au      21.27803041      25.07726104      13.22683722 
Ag      21.41728885      23.66996314      10.46262011 
Au      21.70659252      20.50127339      11.69798509 
Ag      21.46367190      17.70916338      12.53299679 
Ag      21.10851713      14.91368716      13.43715143 
Ag      20.49281554      11.83512582      13.94743469 
Au      19.87113354      11.98871523      17.16329748 
Ag      19.03752599      11.95605354      19.98451931 
Ag      18.11102650      11.98933136      22.79006978 
Au      11.27150506      14.28855239      17.41563320 
Au       9.45784798      18.35901676      22.68548041 
Au      10.16948950      24.94749374      20.75076318 
Au      12.21813826      24.89050297      14.26041081 
Au      12.81511035      18.45173276      12.18152223 
Ag      12.11021374      27.57238342      21.82944731 
Au      10.58157704      18.71626569      26.04652334 
Au      12.87205249      11.75242933      19.14865100 
Au      15.56567284      16.60581226      10.76794377 
Ag      14.97915068      26.05788752      12.61379928 
Au      14.38413722      26.87375445      25.77694447 
Ag      17.73245202      28.64058232      15.35559310 
Ag      19.39286774      18.88122384      10.45231070 
Au      16.98343635      10.78401870      17.63867011 
Ag      13.96053624      15.78568987      26.90040720 
S      11.18955955      22.80967061      14.62108565 
S      11.28547628      18.41775962      13.96019081 
S      10.25596289      16.34070092      17.90769756 
S       9.11292831      19.59687569      20.72189663 
S       9.88571846      23.68031645      18.79629406 
S      13.06111744      27.02717687      13.74243206 
S      10.18966436      26.33804666      22.64891413 
S       9.54198379      17.09517877      24.68154364 
S      12.08994655      12.12950957      16.94625615 
S      14.15169213      18.43016839      10.23562449 
S      12.86283327      26.63040100      18.06797983 
S      11.02665008      22.12254859      23.70032392 
S      11.88082253      15.08752998      21.62632198 
S      14.13366092      15.11489672      14.45088503 
S      14.76687349      22.16671811      12.39028911 
S      16.75092951      25.64530398      11.04253448 
S      13.63969748      29.34621732      21.24195271 
S      11.48188755      20.28409047      27.54112881 
S      13.51925403      11.13852931      21.31881967 
S      16.93643143      14.73258176      11.08745017 
S      18.24022910      20.85107578       9.53751425 
S      15.92008432      29.70787905      16.60257897 
S      12.75467131      25.41029362      26.68273080 
S      12.87195485      13.85532205      25.89679493 
S      16.49678773      11.16438259      15.35016740 
S      20.61519541      16.77284203      10.39836847 
S      19.55493322      28.46752204      13.77917459 
S      15.91084660      28.57337190      25.21002094 
S      14.63581555      17.23376842      28.74859561 
S      17.52557021       9.97991709      19.78960491 
S      20.72642970      10.21222852      15.71271626 
S      20.13533890      13.15016670      11.97958565 
S      22.48847788      21.66309459       9.67207110 
S      20.43924900      25.80335414      11.04975528 
S      19.83306249      31.03575975      18.15527713 
S      17.01088864      30.58434582      21.89559750 
S      16.30656735      25.48780218      29.30610498 
S      14.52963140      21.04128718      29.64496578 
S      16.61333144      12.56931576      27.59566275 
S      16.36372350      10.33090879      23.47426223 
C       9.50658833      23.15739357      15.25807212 
C       9.94024841      19.58551238      13.52939246 
C       9.24417721      16.79015801      16.44764479 
C       8.01488608      18.59411028      19.65117495 
C       8.32629390      22.73626887      18.99917281 
C      12.01050641      27.64893745      12.36358157 
C       8.77823193      27.49385818      22.39565329 
C       7.81329470      17.05558641      25.30894830 
C      10.58973810      11.07091833      16.82839501 
C      13.06996171      17.74517509       8.91482661 
C      11.18256633      26.81598351      17.34869768 
C       9.30449580      22.24363620      23.09135620 
C      10.06407392      14.96854618      21.38275129 
C      12.41511233      14.94480866      13.83013976 
C      13.10088835      22.14415027      11.62522239 
C      16.02284779      24.56177374       9.74904313 
C      13.04149699      30.06454704      19.66326067 
C      10.33179555      21.71252861      27.45502945 
C      12.01721914      11.30936610      22.35771858 
C      15.75067409      13.32972744      11.17900255 
C      16.85966604      20.25720896       8.48962932 
C      14.53373441      30.01731887      15.44494223 
C      11.12603406      26.14414339      26.27555403 
C      11.07341682      14.00298180      26.23167861 
C      14.83841592      10.45067364      15.03983100 
C      21.96439724      17.11156457       9.19300312 
C      20.43764382      30.07042165      13.96982872 
C      16.41594852      29.25222248      26.84262628 
C      15.11613496      16.03762623      30.05874960 
C      18.62303226       8.54715843      19.43895616 
C      19.46725544       8.91624127      15.38334437 
C      21.41749810      12.66292646      10.75965275 
C      21.64127940      21.13850559       8.13095686 
C      21.53748237      27.13653940      10.44024239 
C      18.83922414      32.06147342      16.99959627 
C      17.51892764      31.97361280      22.97951748 
C      14.82658606      26.52080036      29.65915056 
C      14.87935149      20.48923913      31.35608233 
C      15.00978051      12.28945375      28.43981077 
C      17.15331077       8.71564401      23.84126137 
H      31.94396004      22.20405309      25.44869354 
H      32.04394025      23.70089382      26.42075016 
H      31.40671156      23.75549762      24.74343458 
H      31.48357790      19.44376250      26.31567258 
H      31.35029572      19.08938981      28.06533970 
H      30.44209801      20.46632552      27.34421812 
H      32.15101518      17.92340080      24.20574316 
H      32.53800942      16.19567298      24.46573842 
H      31.11975795      16.93836663      25.28500228 
H      33.84493051      18.76717734      20.67441893 
H      32.48479419      17.90187042      21.46773206 
H      33.04330743      19.47505940      22.10663241 
H      33.44903810      23.50882113      21.81343596 
H      32.60148339      22.09370851      21.08483041 
H      32.78327387      22.21915920      22.86009955 
H      29.96358157      28.04960109      27.96780734 
H      29.17087315      27.05074299      29.22252690 
H      28.55840779      28.69589449      28.87045701 
H      32.07329028      28.06782493      17.44939834 
H      33.02772193      26.68203953      18.06870294 
H      32.24880326      27.81655018      19.21617062 
H      33.15483945      16.78185353      14.53008137 
H      33.78176764      16.54259704      16.18824083 
H      33.51654593      18.19514947      15.56299833 
H      30.26370580      10.17117075      23.97225537 
H      31.02416290      11.48853183      24.91654316 
H      31.12671846      11.49470781      23.13035007 
H      28.57776587      18.45480733      32.24024641 
H      28.34856100      16.78914547      31.62935259 
H      27.26942057      17.42972753      32.90663707 
H      29.99896943      27.49181775      22.66139032 
H      30.07306663      25.94436743      23.56048441 
H      29.40733599      27.41270728      24.36327490 
H      31.97808508      21.69443411      16.63976891 
H      31.69894717      21.96388332      18.39135517 
H      31.70251285      23.36339581      17.26056949 
H      31.37588691      15.17882731      18.56554559 
H      31.13486045      13.96186345      19.87037671 
H      31.23337639      15.70143318      20.28251884 
H      28.87902523      13.79628908      26.63474875 
H      28.54409344      14.79720298      28.09056321 
H      29.16160889      15.57302470      26.60170946 
H      28.13373899      22.96572357      29.64880799 
H      28.55735934      21.64837337      28.51534948 
H      27.82584356      21.25439577      30.11242394 
H      24.09149927      24.40639404      31.63349080 
H      25.50206022      25.51666439      31.66600434 
H      25.55388648      24.01025900      30.67956066 
H      28.81096050      30.72212267      20.70722187 
H      28.25982601      29.36362641      21.74879907 
H      27.15149828      30.71719020      21.39027304 
H      31.52627530      21.51657316      12.95221364 
H      30.64309933      22.14202124      14.38523564 
H      30.07681531      22.55115148      12.74506989 
H      28.44182135      11.10141826      17.55520175 
H      29.47138342      10.43742553      18.86912623 
H      29.29211677      12.21816605      18.66488676 
H      24.73058210      12.35234511      29.29800633 
H      25.76795474      13.06867226      30.57396291 
H      26.03564105      13.48393753      28.84242622 
H      24.64383495      21.40931288      32.79803982 
H      24.79496809      19.79952499      32.03175878 
H      23.71218772      20.02540729      33.44802464 
H      27.05207834      30.49646966      24.84345574 
H      26.52901867      29.26568735      26.02811720 
H      25.84955496      30.92261520      26.09739262 
H      29.80142265      27.15992797      13.97628266 
H      30.57193767      25.54719856      14.05192909 
H      29.98829989      26.32366756      15.55165617 
H      29.91660087      13.86164338      13.64145122 
H      30.20175138      13.19988507      15.27901374 
H      30.12213152      14.96763007      15.03866784 
H      26.07902175       9.28884893      25.67862530 
H      26.55480859      10.68286274      26.69821557 
H      26.80148184      10.74999071      24.93127868 
H      18.60016648      16.12149238      31.46177821 
H      18.71545408      17.90173394      31.61792961 
H      19.74755200      16.84077314      32.63874990 
H      19.58734733      30.08619616      27.58007310 
H      20.23575174      30.26771647      25.92439712 
H      21.17135760      30.87400745      27.32643181 
H      25.41383749      29.74101689      13.83390361 
H      23.71237736      29.91690310      14.36339500 
H      24.23695811      28.41779514      13.53965300 
H      25.16077209      16.68667432      10.03473090 
H      25.00601683      15.34490224      11.20695577 
H      26.57721572      15.65263881      10.39650695 
H      21.57143021       8.06661933      20.85315678 
H      21.26999321       8.91142829      22.39952528 
H      22.63994888       7.76637444      22.25472046 
H      21.50397224       8.12008640      24.83527646 
H      21.24790335       8.28833827      26.59861163 
H      22.52752205       9.24963218      25.77986842 
H      19.76268389      11.70796264      30.52113220 
H      18.44765327      12.46782175      29.55970616 
H      19.30293242      13.41059207      30.83237855 
H      18.93245209      20.13194935      33.06401782 
H      18.90167542      21.84171862      33.59244508 
H      20.32137924      21.20120349      32.69689945 
H      19.65249911      28.02581321      29.97011191 
H      19.57916334      27.25274611      31.58676439 
H      18.31462282      26.88747444      30.36341326 
H      22.22622532      33.04710867      23.52996258 
H      23.02949636      31.58940394      24.21360087 
H      21.49928765      32.19740092      24.92771288 
H      23.93823450      31.76767366      17.12758785 
H      23.77430086      32.86373325      18.53587130 
H      22.34337357      31.95810596      17.93594578 
H      26.32878983      26.51905067      10.33417795 
H      26.92521436      26.26087665      12.00979944 
H      25.81499710      27.62067313      11.64824926 
H      26.71815693      21.21436393       8.83074372 
H      25.00965598      20.86603966       9.25051086 
H      26.25572017      19.58295682       9.40329548 
H      25.68907146      12.86491031      11.56351029 
H      25.76452293      11.21024358      12.24469740 
H      26.54967664      12.57710413      13.11369777 
H      24.45231310       8.12820854      16.67532533 
H      22.79384344       8.82020269      16.74161319 
H      23.62247630       8.31660476      18.25499073 
H       8.92774637      23.65818618      14.47425705 
H       9.53770898      23.77259984      16.16298624 
H       9.04339995      22.19052109      15.49139732 
H       9.42644589      19.22469803      12.63168273 
H      10.32211445      20.59931217      13.37067610 
H       9.23722798      19.59191143      14.37195640 
H       8.43006417      16.06318002      16.35042781 
H       9.84453172      16.82105440      15.53282151 
H       8.82647127      17.78623930      16.63964891 
H       7.88304016      19.15032599      18.71451682 
H       7.04287169      18.47948003      20.14334641 
H       8.44908189      17.61321371      19.43231779 
H       8.18503250      22.15261245      18.08075293 
H       7.49531995      23.44092777      19.11254941 
H       8.36779207      22.05318234      19.85365332 
H      12.48348079      28.55517404      11.96672533 
H      11.02058703      27.89646098      12.76347705 
H      11.91082665      26.90800117      11.56559324 
H       7.84202309      26.94107989      22.53364230 
H       8.79752674      27.94228649      21.39849004 
H       8.85353452      28.28212278      23.15417223 
H       7.22529960      16.42563717      24.63144849 
H       7.38023825      18.05858405      25.35249056 
H       7.82750227      16.60997157      26.31044321 
H      10.07165982      11.32046868      15.89519044 
H       9.92138047      11.22873574      17.67911368 
H      10.91814546      10.02531617      16.80134354 
H      13.68640240      17.58324063       8.02280555 
H      12.29396104      18.48841672       8.69806829 
H      12.60575275      16.80433041       9.22282013 
H      11.28019287      27.34401603      16.39304833 
H      10.57263386      27.40327308      18.04559581 
H      10.71118750      25.84161670      17.18859364 
H       8.95660185      23.26211782      23.30228873 
H       8.69668967      21.50751280      23.63164996 
H       9.24604027      22.04697615      22.01743992 
H       9.85528738      13.98525842      20.94387109 
H       9.71566167      15.75519314      20.70611993 
H       9.57598854      15.06526402      22.35854926 
H      12.42795002      15.09023530      12.74317118 
H      11.75706155      15.68764402      14.29092828 
H      12.07549480      13.93266652      14.07969032 
H      13.13963183      21.45610539      10.77242147 
H      12.87080084      23.16175546      11.28657976 
H      12.34154847      21.81517821      12.34065558 
H      15.37278630      25.16184252       9.10276583 
H      15.45664180      23.73335785      10.19036117 
H      16.85161352      24.14933129       9.16038690 
H      13.86321632      30.64773171      19.22935861 
H      12.19203732      30.72121800      19.88383168 
H      12.74464568      29.27708583      18.96084037 
H      10.80511309      22.53210192      28.01007610 
H       9.38628990      21.43477675      27.93383042 
H      10.16491204      22.02218465      26.41728482 
H      11.31664824      10.50782509      22.09846481 
H      11.55006328      12.29011399      22.22224615 
H      12.34188197      11.20423530      23.40068075 
H      15.29390009      13.17236874      10.19600170 
H      14.97703803      13.50510199      11.93468865 
H      16.33821439      12.44619177      11.45865710 
H      17.27761375      19.96009495       7.52032187 
H      16.15163416      21.08212973       8.34775279 
H      16.34070450      19.40971809       8.94702746 
H      14.80277479      30.86669808      14.80628738 
H      13.64709437      30.26914737      16.03907197 
H      14.31507593      29.13923632      14.82907353 
H      10.35901418      25.42348937      26.58439114 
H      11.02836764      26.34054135      25.20296501 
H      11.00967673      27.07305915      26.84531888 
H      10.56378093      13.20248927      25.68172662 
H      10.67904858      14.96999009      25.90335380 
H      10.89618055      13.87501715      27.30546541 
H      14.54992396      10.72956706      14.01901387 
H      14.09774384      10.83541306      15.74788574 
H      14.90862474       9.35976028      15.11827408 
H      21.53500744      17.16661822       8.18594628 
H      22.67678576      16.27903738       9.23695830 
H      22.48676995      18.04628939       9.42394361 
H      19.79391533      30.88121229      13.61002552 
H      21.34324476      30.02758031      13.35250385 
H      20.72128424      30.25730984      15.01140833 
H      17.21380603      29.98173547      26.65730534 
H      16.78831272      28.46615936      27.50850371 
H      15.55820853      29.75767196      27.30009700 
H      14.20117580      15.60529012      30.48131528 
H      15.65903834      16.58230236      30.84051721 
H      15.75378578      15.24243937      29.65844838 
H      18.03953345       7.75622026      18.95455334 
H      18.99988809       8.18376321      20.40299989 
H      19.46818174       8.83399113      18.80463706 
H      19.86956606       8.26151210      14.60106584 
H      18.51870589       9.35523661      15.05935782 
H      19.30810883       8.33842281      16.30092430 
H      21.48258381      13.46739443      10.01702996 
H      21.10202768      11.73501812      10.26883781 
H      22.39101588      12.51548782      11.23947868 
H      21.95093233      21.82337727       7.33265344 
H      20.55276978      21.16227865       8.24664288 
H      21.96530391      20.12069187       7.88447030 
H      21.34217878      27.27446862       9.37006410 
H      22.59340747      26.89365619      10.60267808 
H      21.27073030      28.05136235      10.98385489 
H      19.39297033      32.13812850      16.05647501 
H      18.72686730      33.05908156      17.43892488 
H      17.85545665      31.61690678      16.81631791 
H      17.16617359      32.91269034      22.53813518 
H      18.60604639      32.00478752      23.11016011 
H      17.02620327      31.81644743      23.94691906 
H      15.07738953      27.56620894      29.44402408 
H      14.57962228      26.41650910      30.72182054 
H      13.97285544      26.22071545      29.04366723 
H      14.73762895      19.40212411      31.38967154 
H      14.15852477      20.97444163      32.02512165 
H      15.90117064      20.74742686      31.65629675 
H      14.93606909      11.22009936      28.66951466 
H      14.16940411      12.60228060      27.81028234 
H      15.01451449      12.86437505      29.37340791 
H      17.32243827       8.21886204      22.87790482 
H      16.46504490       8.11382252      24.44553873 
H      18.10346637       8.84434331      24.37116429 
