646
Properties=species:S:1:pos:R:3 i=73 optimized=T E=-9778.4818928541 pbc="F F F" jobid=246_80-Ag-19_9-000008-PBE
Au      21.90101467      20.17137248      20.93110026 
Au      24.79914002      20.16201469      21.82167507 
Au      20.45480280      22.67161845      20.47482327 
Ag      19.73710497      20.95982153      22.75429755 
Au      19.97502131      18.18260916      21.87615442 
Au      21.17572064      23.50992202      23.17486300 
Au      20.43961758      21.75755910      25.46396985 
Au      20.70653570      18.95601155      24.67414013 
Au      20.91242436      16.17449448      23.75960661 
Au      21.81528064      16.10433910      20.95447007 
Au      22.69231106      16.08624764      18.12894829 
Au      23.03438787      18.86650984      17.23028450 
Au      23.28925568      21.69584739      16.35574708 
Ag      22.62457262      23.44947094      18.59840107 
Au      21.86970965      25.16341656      20.84646954 
Au      23.38327250      22.68569760      21.35489103 
Au      22.65173238      20.99599730      23.66409124 
Au      22.90931738      18.15985718      22.83020398 
Au      23.81067127      18.09564838      20.02310881 
Au      24.09701089      20.89533084      19.09589627 
Au      20.82480056      13.95440934      18.99044088 
Au      21.78241097      13.98538486      16.18996798 
Au      22.11767695      16.84203110      15.29826479 
Au      22.34530921      19.70525059      14.38334879 
Ag      22.63170046      22.54298562      13.53324015 
Au      21.93708365      24.33252869      15.83362600 
Ag      21.13969850      26.07209885      18.13282032 
Au      20.44970007      27.80538606      20.41772900 
Au      25.34789896      22.39249528      14.47217216 
Au      24.76565117      24.27105104      16.71917766 
Au      23.98181341      25.97493892      18.90311124 
Au      23.17396619      27.71809555      21.19093067 
Au      22.57985031      26.09649938      23.63335430 
Au      21.86634025      24.32217222      25.87512283 
Ag      21.02748703      22.59704085      28.18898773 
Ag      21.38852990      19.75816304      27.43486560 
Ag      21.57671943      16.96847551      26.55945444 
Au      21.72457271      14.11039277      25.63922511 
Au      22.78297201      14.02198792      22.83497301 
Au      23.61280194      14.03126474      20.04788192 
Au      24.44684476      13.97598404      17.14126141 
Au      24.91672577      16.78649936      16.24580052 
Au      25.17322098      19.56730550      15.38741495 
Au      23.63316932      18.95769319      25.61865344 
Au      23.75456610      16.17121253      24.73422374 
Au      24.81428027      16.04867123      21.94650317 
Au      25.55779294      16.03663262      19.10088467 
Au      26.04797031      18.81885470      18.16964280 
Au      26.17803608      21.62989620      17.24505782 
Au      25.60155638      23.44267866      19.50250299 
Au      24.77739598      25.19410629      21.65849940 
Ag      24.14115558      23.57652121      24.09123625 
Ag      23.26282703      21.81048821      26.32241047 
Au      26.25581522      22.74008320      22.25587506 
Au      25.49423315      21.01326127      24.61096893 
Au      25.79742865      18.10419774      23.76326479 
Ag      26.71149669      18.04958226      20.89908503 
Au      27.07122969      20.88575698      19.95749818 
Au      27.69570722      20.15216539      22.73376458 
Ag      27.57334155      15.15790812      21.34339575 
Au      28.53348969      17.24705249      18.65882675 
Au      28.84054530      19.82979381      17.71121503 
Au      28.45836746      23.27066954      18.73901606 
Ag      27.81154666      25.01099175      20.88317036 
Au      26.74237208      25.05315340      24.15845870 
Ag      26.00887640      23.46833112      26.37197997 
Au      25.68791223      20.08401087      27.45212363 
Au      25.93317242      17.38612443      26.77415102 
Au      26.71091962      15.25587230      24.05907253 
Au      28.48380555      17.44009959      23.11519174 
Ag      29.39272721      19.28225049      20.61791521 
Au      29.03904003      22.31466523      21.47125977 
Au      28.02499833      22.41761299      24.47578897 
Au      27.76339254      19.39139365      25.47503127 
Au      25.52647590      13.26447521      22.27870093 
Au      26.23216585      13.26987789      19.31733365 
Au      27.14671931      15.02829675      17.05862041 
Au      27.55042945      17.85780917      15.89733368 
Ag      27.72567733      20.76354578      14.96039050 
Au      27.50415596      23.68029644      15.88578731 
Au      26.87111169      25.65057522      18.17737944 
Au      25.93459356      27.47471541      20.40046526 
Au      25.16260303      27.43753660      23.26872416 
Au      24.42884295      25.84610629      25.82184482 
Ag      23.56642576      24.05596097      28.11119379 
Au      23.35226248      21.19243660      29.02505665 
Au      23.59237750      18.20339699      28.39337331 
Au      23.68758372      15.27867131      27.40587562 
Au      24.50912383      13.51291820      25.14839217 
Au      24.33207806      11.48162194      15.45023916 
Au      24.06649685      14.78058565      14.34719379 
Au      24.15638471      17.52084521      13.41749053 
Au      24.43113980      20.35696615      12.62109800 
Ag      25.38804400      23.11962536      11.55622033 
Au      24.14421666      25.03220054      13.99935004 
Au      23.27306146      26.82993299      16.12613531 
Au      22.52714012      28.51477882      18.44734440 
Ag      22.43523487      30.61482769      20.78371163 
Au      21.28525265      28.63332929      23.24281829 
Ag      20.42678116      26.89485846      25.46370117 
Ag      19.65170253      25.13259817      27.70571554 
Au      19.49668053      23.59824371      30.57639812 
Ag      19.27856623      20.44445830      29.31515805 
Au      19.37697768      17.71995373      28.34744821 
Au      19.61077950      14.93255051      27.48402007 
Au      20.53617398      11.81255796      27.22752226 
Au      21.02695096      11.92856043      23.77801603 
Au      21.73280336      11.92771075      20.95575391 
Ag      22.65597915      11.91287076      18.15996991 
Ag      29.55988140      14.42248214      23.50168686 
Au      31.51498771      18.30750367      18.11466402 
Au      30.80783544      24.90445554      19.98953072 
Au      28.66977133      25.04561878      26.64708032 
Au      28.00208858      18.50662163      28.85394723 
Au      28.96045177      27.66266468      18.78132252 
Ag      30.15614006      18.77647035      14.92872262 
Au      28.07710110      11.76058708      21.81577731 
Au      25.31943678      16.55494722      30.17442793 
Au      25.88157765      26.41747894      28.37627816 
Ag      26.49746382      26.58478179      15.30219631 
Au      23.21598055      28.72625315      25.74066730 
Au      21.65008378      18.98247139      30.72514703 
Au      23.99308062      10.78303923      23.31725678 
Au      27.10291638      15.67648396      13.80404848 
S      29.64763021      22.95369956      26.24492374 
S      29.48837409      18.55788011      27.03655796 
S      30.73390733      16.48107430      23.05194302 
S      31.83286319      19.54507185      20.08244416 
S      31.05129936      23.64545776      21.95363853 
S      27.81460869      27.16074219      27.22144073 
S      30.75453547      26.28770948      18.08269933 
S      31.46346997      17.09282396      16.10134487 
S      28.99046490      12.12376075      23.96585109 
S      26.69508721      18.37098595      30.81049302 
S      28.13930643      26.59603483      22.82148473 
S      29.85081208      22.01157172      17.13188930 
S      29.17895169      15.01226212      19.39585392 
S      26.93502820      15.14236450      26.52221624 
S      26.10604244      22.23902783      28.56936526 
S      24.06248947      25.87931907      29.75392343 
S      27.33293191      29.22602887      19.43332179 
S      29.43934418      20.33160851      13.22685049 
S      27.30610303      11.11899223      19.68401270 
S      24.00988166      14.65123707      29.74322524 
S      22.68971519      21.00374019      31.39233564 
S      24.89416580      29.61196391      24.32240828 
S      28.18496415      25.22440714      14.14645830 
S      27.97068073      13.87798599      15.07850026 
S      24.54225428      11.11962528      25.59469271 
S      20.41275539      16.99645906      30.46499823 
S      21.48052372      28.25583531      27.26973578 
S      25.03047338      28.48135035      15.73247931 
S      26.27225642      17.21585974      12.21991016 
S      23.35921729      10.10705926      21.14547321 
S      20.32762202      10.27678470      25.46197615 
S      20.59999687      13.30543381      29.04770409 
S      18.45626123      21.64632918      31.37015116 
S      20.45258951      25.66697005      30.00313050 
S      21.12739958      31.03098074      22.76672052 
S      23.87053280      30.53805273      18.84436347 
S      24.62058840      25.40355975      11.62197630 
S      26.31724656      20.92569360      11.16880175 
S      24.21664436      12.53631188      13.34788837 
S      24.40215268      10.24592531      17.44403316 
C      31.31853732      23.25449528      25.55661204 
C      30.78663128      19.79043516      27.41801824 
C      31.68006639      17.00530753      24.53202867 
C      32.96635915      18.57938605      21.14961150 
C      32.57381153      22.64221320      21.77729368 
C      28.90530901      27.76720098      28.57264152 
C      32.22676055      27.37824658      18.24427257 
C      33.15256743      17.26503443      15.39066787 
C      30.56580109      11.17196272      23.93876468 
C      27.81007220      17.65233749      32.08374151 
C      29.81928072      26.67632100      23.55151155 
C      31.62420308      22.12533158      17.57611556 
C      30.98230336      15.01121507      19.73154921 
C      28.71196292      15.11071843      26.96254197 
C      27.75075441      22.23274076      29.38815661 
C      24.79504381      24.93918832      31.15231948 
C      28.03831745      30.02203953      20.93028952 
C      30.55192926      21.78564145      13.38265498 
C      28.77956277      11.21899271      18.59413855 
C      25.22474802      13.28196399      29.59524324 
C      24.11927367      20.54257376      32.44109317 
C      26.34296755      30.01274581      25.36599560 
C      29.84045450      25.92584482      14.49460060 
C      29.79637206      13.96729147      14.99348114 
C      26.24446272      10.49665881      25.84415488 
C      19.06033387      17.16724895      31.69682411 
C      20.50893231      29.81725885      27.27986657 
C      24.64929864      29.13048888      14.05620523 
C      25.81330100      16.14645381      10.79904506 
C      22.31913024       8.62315713      21.44408791 
C      21.56671984       8.95480784      25.74219531 
C      19.28744340      12.73762885      30.19458865 
C      19.31020076      21.22031686      32.93817120 
C      19.31952920      26.91925088      30.72376415 
C      22.16174721      32.04613157      23.89261257 
C      23.33068382      31.83169366      17.66610177 
C      26.09400889      26.46522228      11.34598192 
C      25.91059783      20.44131995       9.44899948 
C      25.82613314      12.23397434      12.52226896 
C      23.57945542       8.65608695      17.03702482 
Au      18.97549411      20.19994057      20.01592678 
Au      16.10580776      20.22684100      19.09702118 
Au      21.17063819      20.97086632      18.20008951 
Au      20.85941835      18.15547267      19.05786870 
Au      19.73901154      23.52954255      17.75050079 
Au      20.51324039      21.81347753      15.50010387 
Au      20.19182747      18.97946065      16.28784696 
Au      19.92950867      16.15221899      17.17622296 
Au      18.98554130      16.10802136      19.94501370 
Au      18.12613041      16.13612969      22.79262815 
Au      17.83578045      18.87730478      23.69921299 
Au      17.62425204      21.69203242      24.55509499 
Au      18.27974228      23.47606128      22.32221953 
Au      19.04928200      25.17397912      20.07513195 
Au      17.49527551      22.71935459      19.56277078 
Au      18.23315192      21.01000916      17.25921231 
Au      17.95965866      18.18838970      18.10204026 
Ag      17.07670210      18.14973405      20.91407826 
Au      16.79263132      20.93792431      21.83167901 
Au      19.98966068      13.99280585      21.88627526 
Au      19.03542774      14.03509906      24.71743498 
Au      18.71306782      16.85362843      25.63308645 
Ag      18.56387761      19.70733736      26.50998948 
Au      18.31547683      22.49664911      27.36527073 
Au      18.99282868      24.32774726      25.08924979 
Au      19.76608921      26.10658317      22.78792234 
Au      15.58543128      22.46022938      26.51955480 
Au      16.16231835      24.26121600      24.20114755 
Ag      16.90453378      25.99824206      21.98714475 
Au      17.70901369      27.72091689      19.71345444 
Au      18.31749251      26.08465660      17.29396031 
Ag      19.06769422      24.38059777      15.07145858 
Au      19.87880327      22.67986771      12.82133474 
Au      19.50288862      19.78428103      13.51621937 
Au      19.25035876      16.99337400      14.38098368 
Au      19.09071956      14.10132262      15.29574771 
Ag      18.03403883      13.98888883      18.04938844 
Au      17.20542834      14.06538762      20.83848753 
Au      16.32796470      14.06333507      23.79230616 
Ag      15.88491146      16.79972969      24.69316125 
Au      15.74995079      19.58666300      25.53656985 
Au      17.22790635      18.98839921      15.25989918 
Au      17.10377398      16.16582472      16.22939743 
Au      16.04895576      16.07270672      18.98081582 
Au      15.28604641      16.07219347      21.84583389 
Au      14.87219418      18.84719196      22.77972499 
Au      14.73377810      21.65986097      23.68243567 
Ag      15.30030040      23.48705750      21.43167075 
Au      16.14090458      25.21636005      19.22589004 
Au      16.76139354      23.62293717      16.79114845 
Au      17.61960562      21.85687100      14.60626088 
Au      14.58612211      22.79872254      18.67937268 
Ag      15.38142237      21.05439822      16.31488779 
Au      15.13093482      18.15661952      17.15379892 
Au      14.20326001      18.11707395      20.06041434 
Ag      13.89296403      20.97510813      20.97427410 
Au      13.24749979      20.22704247      18.18510516 
Au      13.28646353      15.18481933      19.57369796 
Ag      12.37868672      17.33584236      22.27302228 
Au      12.12464877      19.97359613      23.23398457 
Ag      12.40658617      23.26408077      22.19471197 
Au      13.06290031      25.00045436      20.12056447 
Au      14.12989336      25.04384698      16.69484537 
Au      14.88269232      23.50200562      14.52268878 
Ag      15.20738002      20.12927342      13.47997281 
Au      15.04868672      17.39992050      14.17883947 
Ag      14.09509314      15.33534154      16.85574752 
Au      12.39780404      17.50987885      17.90626326 
Au      11.59730081      19.36110555      20.32058387 
Ag      11.83797346      22.39504243      19.39855877 
Au      12.80759642      22.39006312      16.43632351 
Au      13.14620319      19.32731832      15.47837633 
Au      15.30080805      13.30188849      18.62313003 
Au      14.61331390      13.28385640      21.65753571 
Ag      13.56795167      15.10637796      23.85158046 
Au      13.28015871      17.93511876      25.00765100 
Au      13.24500489      20.85935863      26.00703174 
Au      13.40239152      23.67754106      25.04643795 
Au      14.06797852      25.62083369      22.83235335 
Au      14.95604465      27.44983147      20.52187334 
Au      15.72376113      27.46203422      17.62356407 
Ag      16.43468250      25.96337874      15.11204552 
Ag      17.32334116      24.10425761      12.86521876 
Au      17.54364229      21.21690573      11.89706031 
Ag      17.31305763      18.23771086      12.46794995 
Ag      17.13607682      15.33132144      13.47607413 
Au      16.30771738      13.55181210      15.75644861 
Au      16.49591399      11.56070749      25.52706343 
Au      16.79674915      14.82068009      26.59022670 
Ag      16.65477823      17.58111745      27.46274219 
Au      16.50939076      20.35259915      28.32135764 
Au      15.36944198      23.20395443      29.44904662 
Au      16.79980344      25.11214693      26.90925327 
Au      17.64295441      26.81085919      24.73227648 
Au      18.39569342      28.53467508      22.44737246 
Ag      18.46454177      30.60236653      20.10462189 
Au      19.60314876      28.62306901      17.63371891 
Au      20.51023614      26.89352347      15.46194596 
Ag      21.26675460      25.21132559      13.18677627 
Ag      21.44673935      23.66769573      10.49338021 
Au      21.55071267      20.51257026      11.62799943 
Au      21.44083675      17.74432208      12.50488537 
Au      21.20919823      14.96339026      13.43428663 
Au      20.33024238      11.80742936      13.72058902 
Au      19.85964548      11.88948274      17.15429016 
Au      19.05857091      11.91410598      19.91245639 
Au      18.20554474      12.00629319      22.73549051 
Au      11.23454301      14.26339310      17.36952985 
Au       9.49493401      18.23724033      22.87396005 
Au       9.99589169      24.83998798      20.81293354 
Au      12.18686362      25.06699477      14.23891689 
Au      13.00549081      18.52733485      12.05942002 
Ag      12.04022557      27.45137870      21.81589773 
Au      10.64972590      18.58414952      26.21256998 
Au      12.85481674      11.67565823      19.16618706 
Au      15.66394658      16.54654654      10.71705551 
Au      15.00223105      26.55224795      12.59465838 
Au      14.28526891      26.79710941      25.70102446 
Au      17.57190985      28.80595858      15.22659286 
Au      19.20625807      18.95052120      10.11812487 
Au      16.78024267      10.83896275      17.53314787 
Au      13.79741292      15.71851635      27.05462886 
S      11.22700830      22.96126904      14.63037909 
S      11.48535102      18.52562662      13.84318469 
S      10.23812791      16.35056782      17.74737318 
S       9.21524751      19.50582367      20.91951287 
S       9.65428407      23.52340507      18.90343808 
S      13.00923731      27.20617714      13.69499663 
S      10.07839661      26.28707273      22.66326156 
S       9.54276927      16.98304970      24.86799554 
S      12.00341394      12.07113947      16.99476266 
S      14.36107789      18.43567755      10.13688888 
S      12.75763156      26.49172677      18.12069891 
S      10.96603433      22.06491787      23.84997632 
S      11.80089176      15.00052458      21.55989181 
S      14.08948074      15.11485544      14.34549557 
S      14.79890126      22.33852211      12.34480551 
S      16.93236767      26.05953536      11.36244666 
S      13.54540547      29.27876045      21.27712231 
S      11.60069828      20.15768436      27.67564857 
S      13.57809964      11.09118848      21.32441303 
S      16.92813258      14.60999789      11.09154896 
S      18.18926557      21.00597050       9.54916025 
S      15.87851244      29.68334548      16.62582487 
S      12.68274291      25.34712663      26.66873572 
S      12.94179290      13.84163290      25.88531043 
S      16.31656473      11.16236827      15.23466990 
S      20.39609363      16.94026261      10.42026320 
S      19.30352054      28.20228358      13.74961810 
S      15.83831688      28.45210995      25.06297115 
S      14.48938132      17.29581754      28.67351660 
S      17.36292060      10.14533880      19.70987708 
S      20.53962040      10.23467894      15.45578401 
S      20.25953229      13.29457409      11.89693997 
S      22.48289499      21.65470443       9.67304589 
S      20.50663754      25.83906700      10.88485056 
S      19.78440498      31.02627848      18.13185570 
S      17.03755486      30.53237429      22.05593409 
S      16.21336771      25.39270624      29.28154379 
S      14.57938399      21.00768016      29.74794666 
S      16.59336698      12.57776833      27.64158305 
S      16.50719621      10.39546569      23.48199804 
C       9.53117289      23.22074025      15.27235182 
C      10.17779178      19.74813442      13.46029868 
C       9.33625858      16.82000591      16.22429209 
C       8.17414054      18.53148354      19.77040092 
C       8.15389396      22.51199221      19.19112869 
C      11.94731672      27.81255016      12.32175758 
C       8.68435314      27.46269063      22.41273843 
C       7.80889353      17.00474275      25.48127900 
C      10.48089162      11.04232411      16.91726642 
C      13.26200729      17.80622979       8.80282471 
C      11.05390703      26.50165634      17.44933279 
C       9.21069841      22.15682679      23.32722115 
C      10.00612889      14.86955852      21.19528670 
C      12.39117654      14.95817971      13.66484646 
C      13.15873619      22.42839362      11.52130712 
C      16.30055980      25.17743217       9.87735788 
C      12.94470335      29.99560450      19.69735516 
C      10.42286554      21.56543931      27.66019645 
C      12.07204184      11.20204992      22.36753424 
C      15.67324848      13.27649451      11.25395086 
C      16.76701702      20.66579925       8.44857235 
C      14.43767241      30.08468673      15.57021047 
C      11.02820392      26.00589295      26.24652406 
C      11.13078922      13.84514894      26.16855003 
C      14.63505353      10.51605978      14.91142669 
C      21.75009689      17.07452322       9.18589996 
C      20.30569185      29.73577804      13.61824230 
C      16.27189668      29.26286549      26.65269836 
C      14.91652405      16.23987851      30.11674922 
C      18.35908786       8.63101392      19.41084641 
C      19.28008427       8.93392206      15.16633351 
C      21.57995003      12.73209778      10.75681383 
C      21.61509598      21.22177043       8.11389837 
C      21.67313134      27.04632909      10.14221160 
C      18.75607911      32.05781803      17.01406165 
C      17.59383530      31.84986655      23.20214973 
C      14.79471276      26.52959312      29.52215854 
C      14.93447231      20.58798119      31.49560182 
C      14.99108868      12.26823367      28.47503258 
C      17.33614990       8.79991952      23.83975842 
H      31.75086985      22.27367789      25.32250385 
H      31.92646140      23.75080827      26.32132051 
H      31.27960670      23.85891171      24.64503652 
H      31.44532830      19.84812972      26.54240427 
H      31.35776426      19.43355072      28.28258161 
H      30.36333712      20.77920493      27.61832736 
H      32.06876513      18.01358202      24.34294563 
H      32.51736132      16.31122721      24.66900157 
H      31.05677522      17.02472343      25.43164103 
H      33.91960096      18.44241220      20.62775924 
H      32.53484413      17.61144067      21.42416020 
H      33.13224318      19.16949510      22.05988967 
H      33.43152737      23.32200656      21.72325461 
H      32.53763687      21.99454915      20.89557210 
H      32.65373293      22.01995173      22.67739122 
H      29.88392890      28.00323512      28.13892562 
H      29.01841208      27.01929694      29.36216481 
H      28.45360736      28.67736887      28.98429144 
H      32.16143723      28.14764046      17.46603612 
H      33.12060216      26.76443426      18.08343106 
H      32.27059339      27.84866499      19.23024486 
H      33.12894080      16.85724977      14.37300090 
H      33.85296146      16.68472749      16.00207820 
H      33.47151320      18.31055714      15.35786145 
H      30.32729290      10.10254721      23.90966641 
H      31.11022220      11.40059705      24.86269490 
H      31.18258177      11.43558320      23.07517884 
H      28.56995443      18.40308614      32.32959446 
H      28.29209615      16.73926540      31.72406529 
H      27.20697013      17.43056468      32.97193755 
H      30.46687118      27.20962831      22.84448872 
H      30.22315784      25.67522404      23.72597865 
H      29.75868368      27.22626343      24.49798356 
H      32.18043413      21.41620193      16.95087725 
H      31.78413145      21.88302102      18.63051471 
H      31.94757881      23.15284661      17.37096847 
H      31.50776705      15.18112461      18.78436311 
H      31.24294767      14.02679914      20.13968370 
H      31.25033866      15.78946548      20.45210392 
H      29.08462654      14.10186072      26.74525954 
H      28.80585371      15.32819053      28.03375498 
H      29.27862065      15.85177256      26.39169578 
H      27.93936917      23.24407524      29.76847327 
H      28.53392269      21.95749757      28.67510364 
H      27.72330584      21.51196589      30.21346212 
H      23.95308743      24.54968537      31.73872882 
H      25.39613232      25.61316710      31.77216759 
H      25.40426079      24.10117560      30.79660712 
H      28.88995817      30.64295957      20.63101427 
H      28.34505952      29.27236577      21.66816869 
H      27.24720822      30.65301074      21.35430954 
H      31.52248599      21.54314662      12.93549789 
H      30.68283991      22.08021633      14.43009832 
H      30.08988069      22.61693818      12.83554562 
H      28.42362667      11.07262825      17.56666378 
H      29.47285590      10.41589591      18.86791973 
H      29.26659324      12.19668877      18.67883880 
H      24.67340883      12.40676926      29.22950452 
H      25.64117749      13.07343023      30.58708992 
H      26.02186637      13.53578598      28.88808297 
H      24.68769821      21.46084036      32.63373491 
H      24.76507401      19.81037806      31.94582864 
H      23.74300782      20.13772629      33.38758505 
H      27.16384819      30.28533588      24.69160278 
H      26.64478312      29.16083134      25.98314321 
H      26.08471950      30.86887079      25.99983410 
H      29.97649216      26.80690191      13.85614815 
H      30.59345621      25.16976408      14.24189683 
H      29.94837408      26.20724559      15.54645934 
H      30.10798886      13.70464199      13.97600176 
H      30.18961093      13.22826755      15.70222223 
H      30.16899954      14.96200251      15.25910464 
H      26.22437978       9.40320366      25.77086436 
H      26.55272089      10.79304253      26.85411089 
H      26.94358433      10.91279122      25.11177205 
H      18.34999268      16.35041197      31.51923746 
H      18.54595863      18.12894356      31.59415986 
H      19.48883185      17.07307127      32.70130518 
H      19.59287334      29.62864593      27.85320203 
H      20.24385575      30.13043762      26.26458762 
H      21.09428641      30.60067121      27.77435014 
H      25.54211562      29.63750115      13.67097693 
H      23.82985890      29.85362660      14.14756185 
H      24.35124873      28.32797753      13.37334376 
H      25.27893333      16.77356314      10.07483935 
H      25.16811332      15.32060659      11.11558610 
H      26.73213054      15.75792886      10.34463896 
H      21.85561852       8.34867919      20.48859112 
H      21.53967155       8.82727386      22.18504031 
H      22.96664847       7.80858575      21.78892449 
H      21.61459614       8.33892544      24.83640793 
H      21.21660265       8.34595248      26.58406615 
H      22.55495147       9.37197265      25.95775207 
H      19.63887678      11.82942969      30.69811710 
H      18.35297107      12.53518530      29.65950612 
H      19.13748976      13.53273036      30.93510224 
H      18.95706436      20.23100020      33.25297048 
H      19.03685685      21.96341038      33.69576686 
H      20.39653297      21.19628181      32.80504839 
H      19.61080769      27.88973620      30.30351124 
H      19.45645275      26.93668436      31.81089015 
H      18.27410902      26.70054143      30.48062334 
H      22.14999176      33.07465951      23.51264027 
H      23.18874553      31.67142940      23.93770050 
H      21.71899791      32.01963124      24.89513409 
H      23.75622270      31.58519820      16.68556388 
H      23.72834008      32.79505358      18.00697760 
H      22.23762163      31.87947934      17.60213946 
H      26.35467398      26.39475270      10.28326742 
H      26.93909535      26.14327097      11.96305851 
H      25.83158219      27.50129581      11.58923055 
H      26.61384990      20.94914037       8.77810192 
H      24.88172223      20.71488457       9.18948124 
H      26.04629753      19.35626507       9.36395143 
H      25.87135262      12.86256801      11.62514253 
H      25.85782972      11.17700098      12.23279237 
H      26.66541375      12.47248491      13.18274725 
H      24.25135501       8.05396199      16.41488926 
H      22.63162947       8.82029566      16.51288299 
H      23.39836765       8.13531185      17.98543783 
H       8.94033727      23.72314136      14.49823987 
H       9.52826705      23.80430394      16.19826838 
H       9.10787900      22.22844205      15.47236232 
H       9.64030893      19.41300258      12.56614756 
H      10.59238664      20.74978127      13.30916360 
H       9.49130577      19.76500593      14.31608354 
H       8.52284232      16.10295744      16.06645183 
H       9.99806130      16.84780445      15.35307706 
H       8.91791391      17.82023035      16.39269235 
H       8.07912284      19.11697429      18.84733786 
H       7.18547395      18.40062899      20.22450612 
H       8.62178469      17.56057914      19.53740622 
H       8.00587548      21.89620535      18.29494322 
H       7.29330777      23.17747006      19.31994612 
H       8.26279289      21.85754485      20.06198209 
H      12.38771085      28.74095293      11.93967298 
H      10.95148889      28.01622946      12.73202036 
H      11.87350371      27.07646854      11.51664687 
H       7.74079727      26.93025024      22.57810523 
H       8.69391066      27.89128288      21.40675467 
H       8.78846974      28.26434546      23.15371287 
H       7.20239844      16.39145834      24.80493015 
H       7.41076049      18.02232649      25.51984762 
H       7.80441835      16.56462907      26.48535249 
H       9.95483775      11.28590848      15.98701132 
H       9.82815294      11.22887253      17.77433094 
H      10.78831641       9.99009923      16.90509339 
H      13.88400450      17.60276041       7.92329947 
H      12.53273155      18.59028008       8.56880036 
H      12.74248185      16.89453532       9.11017302 
H      11.06718538      27.06801925      16.51028910 
H      10.40329768      26.99288978      18.18326568 
H      10.69248374      25.48589340      17.26727324 
H       8.84437449      23.15472950      23.59722753 
H       8.64394337      21.38415719      23.86057923 
H       9.10825253      22.01066837      22.24832563 
H       9.81369832      13.88756124      20.74698730 
H       9.69340550      15.65706604      20.50303368 
H       9.46264966      14.96971134      22.14216404 
H      12.44010349      15.04626080      12.57296993 
H      11.73568955      15.73740719      14.06526156 
H      12.01112656      13.96979263      13.94968380 
H      13.19906044      21.78281334      10.63606217 
H      12.97030004      23.46789090      11.22783337 
H      12.36738110      22.08781662      12.19598595 
H      15.75123661      25.88067301       9.24221698 
H      15.66085391      24.33181943      10.15364588 
H      17.18340541      24.80685711       9.34112342 
H      13.75685297      30.59562611      19.26864662 
H      12.08434812      30.63850283      19.91711021 
H      12.65894477      29.21045971      18.98808783 
H      10.90524503      22.38793583      28.20302176 
H       9.50607868      21.26306160      28.17850921 
H      10.20262973      21.88162740      26.63428133 
H      11.39529911      10.38310306      22.09941484 
H      11.57717153      12.17122820      22.24204225 
H      12.39960998      11.09162729      23.40893185 
H      15.20736925      13.09262049      10.27991792 
H      14.91436111      13.53246075      12.00208454 
H      16.21432964      12.37927486      11.58013802 
H      17.14924230      20.28990928       7.49269416 
H      16.24776302      21.61878788       8.28904528 
H      16.07845958      19.94126732       8.89565912 
H      14.70217174      30.93470960      14.93097629 
H      13.61626345      30.36747418      16.23993848 
H      14.13299210      29.22964756      14.95854653 
H      10.29103016      25.25793036      26.56292257 
H      10.92407324      26.18744948      25.17207520 
H      10.87434431      26.93580362      26.80583061 
H      10.70866944      13.03309778      25.56369315 
H      10.67776966      14.79525936      25.86718089 
H      10.93191381      13.65219834      27.22856280 
H      14.37549824      10.79205640      13.88199811 
H      13.89935541      10.94102912      15.60183579 
H      14.65736078       9.42428778      15.00528405 
H      21.32183598      16.97731098       8.18166678 
H      22.44525082      16.24696694       9.37364889 
H      22.28155099      18.02692871       9.28265005 
H      19.72573978      30.48652353      13.06928373 
H      21.21219029      29.48301750      13.05459080 
H      20.58152283      30.11615633      14.60720700 
H      17.09873972      29.95550342      26.45273169 
H      16.58295736      28.52804668      27.40228957 
H      15.39931157      29.82233025      27.00936324 
H      13.99862152      15.81193252      30.53558171 
H      15.39336920      16.88541406      30.86499201 
H      15.60883532      15.43979618      29.83491890 
H      17.68982942       7.83319602      19.06856079 
H      18.81797642       8.34492424      20.36528714 
H      19.14277286       8.81244181      18.66826701 
H      19.60597739       8.33966320      14.30461541 
H      18.29373765       9.36920255      14.97830734 
H      19.24084928       8.29753946      16.05829211 
H      21.72182657      13.52320105      10.01050092 
H      21.23926598      11.81628948      10.25975305 
H      22.51521614      12.54402040      11.29557194 
H      22.00273111      21.88210670       7.32888166 
H      20.53243603      21.34743035       8.21082925 
H      21.84173070      20.17956959       7.86069058 
H      21.56466284      27.02204883       9.05183179 
H      22.70953154      26.81919890      10.41644810 
H      21.40105825      28.04322208      10.51013314 
H      19.20027216      32.04007133      16.01192363 
H      18.77075291      33.08307965      17.40282506 
H      17.72674292      31.68995319      16.96346993 
H      17.21143576      32.80805021      22.83044346 
H      18.68692205      31.88509607      23.27097197 
H      17.15961241      31.64328157      24.18800373 
H      15.12455287      27.54355779      29.26739588 
H      14.51453304      26.48869994      30.58133385 
H      13.94520315      26.24820525      28.89244580 
H      14.77879517      19.50788831      31.60663931 
H      14.22359235      21.12711813      32.13273187 
H      15.96203705      20.85571474      31.76663053 
H      14.95005834      11.20503182      28.73874682 
H      14.15015329      12.53537395      27.82658485 
H      14.96480434      12.87539538      29.38767951 
H      17.54800718       8.32075527      22.87611986 
H      16.64420814       8.17390915      24.41526029 
H      18.26443065       8.95143046      24.40161363 
