646
Properties=species:S:1:pos:R:3 i=107 optimized=T E=-10337.7308317715 pbc="F F F" jobid=246_80-Ag-80_1-000002-PBE
Ag      21.85802147      20.18727802      20.90329452 
Ag      24.69041998      20.18021861      21.79001467 
Ag      20.45131925      22.70282960      20.45782708 
Au      19.71788379      20.95356514      22.74709465 
Ag      19.99335534      18.13410680      21.88233823 
Ag      21.13478601      23.50645572      23.17945704 
Ag      20.37894924      21.74422068      25.45693357 
Ag      20.68693384      18.94933614      24.61716192 
Ag      20.94873699      16.13544561      23.73503065 
Au      21.86521104      16.08212757      20.95295057 
Ag      22.74035276      16.12640036      18.10329163 
Ag      23.05468911      18.91476385      17.20464025 
Ag      23.24410059      21.70780621      16.35966571 
Ag      22.60146709      23.47658534      18.60600017 
Ag      21.84401074      25.21746167      20.88312250 
Au      23.29168740      22.69876898      21.35525773 
Ag      22.56470942      20.97859201      23.62303504 
Ag      22.85113772      18.16061533      22.78958793 
Au      23.76851902      18.14501455      19.96521253 
Ag      24.04047902      20.94078033      19.08718025 
Ag      20.89914619      13.99549507      19.02217310 
Ag      21.80384834      14.00925646      16.23015637 
Ag      22.09793352      16.85883617      15.30754055 
Ag      22.34193545      19.71394072      14.39536349 
Ag      22.59848275      22.49898305      13.53414718 
Ag      21.90661433      24.29884969      15.85889239 
Au      21.14891969      26.09711250      18.14797059 
Ag      20.44463553      27.79415097      20.47602863 
Au      25.28173277      22.41537236      14.47717457 
Ag      24.68849235      24.27407204      16.69960141 
Ag      23.97417290      25.97967412      18.98237993 
Ag      23.21308668      27.71535669      21.28717225 
Ag      22.58594247      26.08140126      23.60765517 
Ag      21.81511821      24.29590970      25.85925737 
Ag      21.04962944      22.54357964      28.13729605 
Ag      21.37976883      19.75048183      27.41319745 
Ag      21.63903027      16.95705006      26.46485996 
Ag      21.90276534      14.10914873      25.56410978 
Ag      22.87748274      14.03309836      22.83824387 
Ag      23.71355022      14.07195844      19.98246912 
Au      24.49804012      14.07737783      17.14538169 
Ag      24.89056594      16.85467960      16.18120230 
Ag      25.12144428      19.63545242      15.34592644 
Ag      23.56853642      18.96169112      25.55167459 
Ag      23.74424470      16.16279625      24.65364850 
Ag      24.77421804      16.08310147      21.84172655 
Ag      25.55045046      16.11422300      18.99885591 
Ag      25.94894461      18.88891773      18.08762805 
Ag      26.09304728      21.68696105      17.21256363 
Au      25.48562315      23.44856142      19.47603302 
Ag      24.64830270      25.21029935      21.70222724 
Ag      24.03460930      23.54369434      24.08590243 
Ag      23.19016495      21.79375874      26.31797567 
Ag      26.15354036      22.71217517      22.22983605 
Au      25.40158127      21.00016604      24.54316231 
Au      25.69145798      18.13922245      23.70176175 
Ag      26.61207709      18.13626540      20.84698196 
Ag      26.93288597      20.95337374      19.93218385 
Au      27.55370406      20.18976249      22.68970306 
Ag      27.53838608      15.30433704      21.18883672 
Ag      28.38770183      17.35883553      18.62505913 
Au      28.67830512      19.98036427      17.69954624 
Ag      28.31306254      23.23481412      18.73430074 
Ag      27.59156828      24.94990629      20.87128063 
Ag      26.60957438      24.88099452      24.13701524 
Ag      25.84152732      23.31906547      26.36057857 
Ag      25.57659399      20.08015425      27.31498930 
Ag      25.77946896      17.34387879      26.58218013 
Ag      26.67647761      15.41317759      23.89851676 
Ag      28.46402387      17.50659975      22.99803497 
Ag      29.26689412      19.38885327      20.57751763 
Ag      28.93752401      22.37454769      21.51572817 
Ag      27.97448810      22.33106904      24.53638310 
Ag      27.67860693      19.34538753      25.43955593 
Ag      25.57267422      13.37116658      22.14797040 
Ag      26.37290875      13.35040732      19.21442634 
Au      27.16060909      15.22878293      16.88346402 
Ag      27.50946967      18.00311856      15.88989168 
Ag      27.67652904      20.88400948      14.95221618 
Au      27.41333828      23.76275715      15.83576773 
Au      26.77382616      25.63843750      18.13743054 
Ag      25.95573353      27.44393605      20.37758436 
Ag      25.23064129      27.42358733      23.38248954 
Ag      24.37874634      25.77876888      25.80865895 
Ag      23.51480932      24.07835886      28.09932044 
Ag      23.43005164      21.09801603      29.08093185 
Ag      23.59745596      18.19179440      28.30552902 
Ag      23.75099678      15.32660028      27.43407063 
Ag      24.72748536      13.51179223      25.06037092 
Au      24.32741212      11.55495181      15.43450605 
Au      23.90651614      14.84576080      14.35301260 
Ag      24.14664669      17.60609575      13.45249927 
Ag      24.44352543      20.37370097      12.56194569 
Ag      25.37921748      23.21829326      11.58255593 
Au      24.00088790      25.04819007      14.01985528 
Ag      23.25001486      26.79204281      16.24610755 
Ag      22.58798414      28.50680986      18.54972295 
Ag      22.29925670      30.56650012      20.96289378 
Ag      21.13352540      28.57507839      23.20907303 
Au      20.38297807      26.81831834      25.41962655 
Ag      19.68327143      25.08449328      27.72162360 
Ag      19.30450251      23.46059140      30.41594776 
Ag      19.23040985      20.48056402      29.22616919 
Au      19.48065535      17.69070456      28.34308964 
Au      19.79879234      14.89828701      27.36948923 
Ag      20.39643283      11.82953696      26.94882068 
Ag      20.99418461      11.98740242      23.75825340 
Au      21.83307389      12.02896090      20.94767263 
Ag      22.74963594      11.96645630      18.16285008 
Ag      29.47132934      14.42200736      23.33487697 
Ag      31.24274820      18.50967655      18.29706798 
Ag      30.51689971      24.79491234      20.28705761 
Ag      28.43789352      24.76381015      26.58080167 
Ag      27.73630443      18.36808574      28.58665179 
Ag      28.89171654      27.47227782      19.00170201 
Ag      30.23014270      18.75841452      15.07616808 
Ag      28.05677175      11.93222923      21.60973424 
Ag      25.31760442      16.49341984      29.96416766 
Ag      25.92720043      26.22425803      28.26131748 
Ag      26.31539671      26.71013049      15.36237520 
Ag      23.18023532      28.54432935      25.52026426 
Ag      21.64806148      19.02214842      30.48587867 
Ag      23.93490440      11.09578588      23.35286261 
Ag      26.82211937      15.82920812      13.81496042 
S      29.50711358      22.61099993      26.49876436 
S      29.37118069      18.15618162      26.83786269 
S      30.70861947      16.43026235      22.89340046 
S      31.68597280      19.90280474      20.20978877 
S      30.83463995      23.73083447      22.42132021 
S      27.81190551      27.05135352      27.00662429 
S      30.75368731      26.10148396      18.28530301 
S      31.41722646      17.09299253      16.35898832 
S      28.73177472      12.20242644      23.90664827 
S      26.52828223      18.45452483      30.67125797 
S      27.78033943      26.62883772      22.77783243 
S      29.76526697      22.14529733      17.03088350 
S      29.09024254      15.04149044      19.21692330 
S      26.65412283      14.95761669      26.37363710 
S      25.90128543      22.18461280      28.65026197 
S      24.09778061      25.84688393      29.75781062 
S      27.38490599      29.28022830      19.49164924 
S      29.39879210      20.15984588      13.31730962 
S      27.48277232      11.13545727      19.43120832 
S      24.09035436      14.44925903      29.74183367 
S      22.56840701      21.06964647      31.41779524 
S      24.86507030      29.72278032      24.24565127 
S      28.08548012      25.46295166      14.21524807 
S      27.93411807      13.96193440      14.93599154 
S      24.43579694      11.12771401      25.73112616 
S      20.42381466      16.92257751      30.47146414 
S      21.39163840      28.24673005      27.14014506 
S      24.86835968      28.62051102      15.80082696 
S      26.11694233      17.23483024      11.97040489 
S      23.37880469      10.14105376      21.18784696 
S      20.20877464      10.14885549      25.23987507 
S      20.72193183      13.21164550      28.90159576 
S      18.23207880      21.48463135      31.27543972 
S      20.48010084      25.51790570      30.02959364 
S      20.91903222      31.04256560      22.87465564 
S      23.92099505      30.48902776      19.19575585 
S      24.50065565      25.46227450      11.62994513 
S      26.45707081      21.09897016      11.27067485 
S      24.13197390      12.58574262      13.32574609 
S      24.53957176      10.34373681      17.43345726 
C      31.23365594      22.92839570      25.96122078 
C      30.75921715      19.26759914      27.29517025 
C      31.69235956      16.78259119      24.40206614 
C      32.79054379      18.97017204      21.33876459 
C      32.42078451      22.81361507      22.29223765 
C      28.97768362      27.67005084      28.29533240 
C      32.23768586      27.15962619      18.56583560 
C      33.15733423      17.23701032      15.76707777 
C      30.25430140      11.17022314      24.04796560 
C      27.68231929      17.83168323      31.96882544 
C      29.41033625      27.10023013      23.49289080 
C      31.55019771      22.28752146      17.44125489 
C      30.89546144      14.89686646      19.54014060 
C      28.29885229      14.47529190      27.04538740 
C      27.42439938      22.13099187      29.68359904 
C      24.75547352      24.87023315      31.16814373 
C      28.00042389      30.08626404      21.02322540 
C      30.50311551      21.62952846      13.31455887 
C      28.97661186      11.36185433      18.38618125 
C      25.33123463      13.11948943      29.48082345 
C      23.92515164      20.59316266      32.56139935 
C      26.21442911      30.17361044      25.40793291 
C      29.68588880      26.22802082      14.67445952 
C      29.74051927      14.15403837      14.68969672 
C      26.07617587      10.33402118      25.96334613 
C      19.09148110      17.22223046      31.70289813 
C      20.46948130      29.83390379      27.03649327 
C      24.44378997      29.22339765      14.11481646 
C      25.52827266      16.01599360      10.72320760 
C      22.29518101       8.71789569      21.61247767 
C      21.47610976       8.87689576      25.63236056 
C      19.43848026      12.78322498      30.13651538 
C      19.10666657      21.09952688      32.84659510 
C      19.47154174      26.86806787      30.75666969 
C      21.95895223      32.08524171      23.97651884 
C      23.52997752      31.84127693      18.01769285 
C      25.93041754      26.58784284      11.37563185 
C      26.21987599      20.60343325       9.52050674 
C      25.72379415      12.29937737      12.45848940 
C      23.80338657       8.69643340      17.10523227 
Ag      19.03833347      20.18273157      20.02463552 
Au      16.20915982      20.18169154      19.10007132 
Ag      21.15178125      20.96925797      18.17422014 
Au      20.90614203      18.15813413      19.05789494 
Ag      19.76897438      23.50956686      17.76623626 
Ag      20.50205563      21.73343306      15.46882814 
Ag      20.23411333      18.95293595      16.30343475 
Au      19.97105388      16.12421920      17.21773784 
Ag      19.03196744      16.10235125      19.99759562 
Ag      18.16223397      16.09708394      22.82978733 
Ag      17.84040390      18.88553832      23.70186600 
Ag      17.61116976      21.71508619      24.59995364 
Ag      18.28259231      23.46526692      22.32704841 
Au      19.06540841      25.19128219      20.06460342 
Ag      17.57472903      22.69373158      19.57071210 
Au      18.30787282      20.98564043      17.29134659 
Ag      18.04738396      18.15435228      18.13900769 
Ag      17.12889120      18.12700202      20.95462637 
Au      16.85206659      20.94250614      21.86158464 
Au      20.01950190      14.00694567      21.89621269 
Ag      19.10393014      14.05382930      24.70172458 
Ag      18.80151600      16.87136854      25.59739400 
Au      18.53632781      19.69302410      26.51701022 
Ag      18.26043056      22.51943550      27.34986207 
Au      18.96663367      24.30872110      25.08024448 
Ag      19.72526957      26.06469427      22.76347200 
Ag      15.50634209      22.44876040      26.40128170 
Au      16.12280829      24.26383373      24.18957143 
Ag      16.89563351      25.96937962      21.92102671 
Ag      17.67551849      27.69164772      19.63721625 
Ag      18.29491471      26.07146082      17.29307025 
Au      19.10856360      24.30650872      15.10395209 
Ag      19.86816054      22.52559244      12.77408933 
Ag      19.53227244      19.73838040      13.51757907 
Au      19.27785097      16.94171194      14.47022629 
Ag      19.09376534      14.10461977      15.36132845 
Ag      18.10776016      14.00747637      18.11244674 
Ag      17.22717205      14.06550382      20.91493911 
Ag      16.34265277      14.06242237      23.79926791 
Ag      15.96155990      16.80987392      24.68484708 
Ag      15.73761395      19.62146779      25.52729850 
Ag      17.29934573      18.95443159      15.38089960 
Ag      17.13769249      16.15298829      16.29255664 
Ag      16.14929567      16.06721209      19.05537178 
Ag      15.36598955      16.06543925      21.89539577 
Ag      14.93072397      18.85763084      22.78998094 
Ag      14.77450258      21.65947677      23.69989811 
Ag      15.35839812      23.48389525      21.42029813 
Au      16.20190737      25.18485712      19.19332616 
Ag      16.81264192      23.53935715      16.82763071 
Au      17.67653729      21.77127340      14.62401608 
Ag      14.67716554      22.71602458      18.66319984 
Ag      15.40641799      20.98117317      16.34928380 
Ag      15.17780544      18.14235620      17.20478863 
Au      14.28100417      18.08161328      20.02105444 
Au      13.98861988      20.93831415      20.94215621 
Ag      13.34818513      20.17369103      18.19031896 
Ag      13.41685555      15.26116250      19.61811002 
Au      12.49957452      17.34320350      22.29271659 
Ag      12.22675305      19.96734374      23.19436398 
Au      12.55081855      23.25287844      22.11397140 
Ag      13.19955096      24.97210569      20.02509903 
Ag      14.24080390      24.86184650      16.73465564 
Au      14.92852065      23.28843419      14.54606855 
Ag      15.25303802      20.02752020      13.59947650 
Ag      15.06091210      17.30796896      14.35397925 
Ag      14.25496126      15.36724931      16.90867427 
Ag      12.42227341      17.47297760      17.89454781 
Ag      11.65811641      19.30931190      20.32033333 
Ag      11.91250827      22.29159099      19.44232880 
Ag      12.82790854      22.30469800      16.39743063 
Ag      13.15568806      19.30975331      15.49587336 
Ag      15.39504781      13.34162073      18.70855604 
Ag      14.58911340      13.30635835      21.59545083 
Ag      13.62593092      15.12067830      23.92509820 
Ag      13.35635138      17.95465679      24.99358778 
Ag      13.19312057      20.79720931      25.95250818 
Ag      13.31109380      23.73920167      24.96614458 
Ag      14.07608396      25.64923807      22.76031437 
Ag      14.90967224      27.40904892      20.47437894 
Ag      15.67991121      27.38275343      17.47334802 
Ag      16.49184534      25.75350533      15.06323323 
Au      17.39849700      23.96718402      12.85711627 
Ag      17.43396476      21.09067401      11.90765556 
Au      17.30623150      18.17222572      12.64447018 
Ag      17.15604455      15.28359051      13.51882475 
Au      16.34367368      13.49574728      15.87312521 
Au      16.58764036      11.64327665      25.53688816 
Ag      16.95546227      14.83890159      26.57010143 
Au      16.72926303      17.62920441      27.43762547 
Ag      16.39973526      20.43274733      28.27314952 
Ag      15.58615027      23.29215311      29.29945921 
Ag      16.80187181      25.03220185      26.88698187 
Ag      17.60382249      26.79747195      24.64454442 
Ag      18.29078461      28.51395794      22.36241712 
Ag      18.56845667      30.56607805      19.96139221 
Ag      19.72036005      28.58147513      17.73056600 
Ag      20.45474597      26.84648667      15.48173842 
Ag      21.16936254      25.10311839      13.20049515 
Ag      21.55636890      23.46568882      10.47145094 
Ag      21.60851650      20.45249330      11.64625228 
Ag      21.41702698      17.70137128      12.61630973 
Ag      21.11950781      14.88865949      13.44398418 
Ag      20.46948004      11.78326515      14.02495498 
Ag      19.93579944      11.95685286      17.18645670 
Ag      19.11335921      11.97741329      19.99275060 
Ag      18.18983995      12.03959963      22.78206370 
Ag      11.37233978      14.49257148      17.57420629 
Ag       9.69713408      18.43593407      22.68690614 
Au      10.24176419      24.92182918      20.78558311 
Ag      12.37314565      24.82599855      14.36303099 
Ag      13.01677191      18.35713225      12.38506446 
Ag      12.02461804      27.56824015      21.93573343 
Ag      10.64568459      18.63854774      25.91755334 
Ag      12.83971602      11.96919129      19.22553209 
Ag      15.55170654      16.49827410      11.01385726 
Au      14.92706069      26.36730720      12.64246956 
Ag      14.48355636      26.58771701      25.62064007 
Ag      17.74005788      28.52683131      15.37370830 
Au      19.27150040      18.90168478      10.32264031 
Ag      17.03436166      10.98122425      17.65291541 
Ag      14.00654681      15.71579191      26.93786152 
S      11.15824811      22.75633690      14.57858410 
S      11.37370841      18.21476467      14.13208728 
S      10.13449332      16.48647438      18.09494344 
S       9.29582494      19.92485388      20.83118152 
S       9.99804590      23.76873435      18.75035251 
S      13.06360459      27.10481605      13.88690843 
S      10.22612479      26.19036807      22.77818329 
S       9.47935003      16.98850661      24.60515213 
S      12.04986153      12.26531322      16.96530407 
S      14.22662734      18.39060733      10.30357976 
S      13.08057495      26.59982286      18.09682410 
S      11.22865090      22.16891882      23.92339566 
S      11.92713900      15.00421568      21.66959486 
S      14.11557324      14.95882280      14.43656529 
S      14.75470132      22.12404749      12.31122683 
S      16.77484554      25.76598035      11.31829942 
S      13.56880488      29.29943307      21.36397617 
S      11.50259246      20.07691579      27.62636465 
S      13.48746217      11.08833881      21.35906704 
S      16.79438474      14.45187701      11.20939798 
S      18.28928213      20.92871060       9.58604186 
S      16.04924501      29.69221205      16.67564602 
S      12.81445042      25.29866058      26.82989858 
S      12.97019652      13.77684577      25.90492186 
S      16.43747211      11.10990443      15.29359545 
S      20.39048309      16.83042335      10.51742130 
S      19.51005511      28.30616581      13.72132744 
S      15.86950128      28.50602990      25.08863656 
S      14.72264966      17.17077587      28.74806007 
S      17.63266313       9.99974608      19.78006852 
S      20.69435161      10.09091322      15.72129123 
S      20.14256360      13.08352355      12.03607348 
S      22.66369437      21.50220228       9.63569143 
S      20.39320063      25.52397872      10.87454797 
S      19.95891277      31.03782872      18.05279834 
S      16.95856056      30.52116257      21.73981370 
S      16.41062201      25.55334341      29.28048193 
S      14.43541835      21.20337611      29.58155501 
S      16.73290473      12.59343298      27.68453492 
S      16.37106722      10.49481823      23.49720239 
C       9.47745278      23.14494561      15.20155092 
C      10.01751425      19.37440527      13.69910703 
C       9.09547144      16.84465732      16.62444213 
C       8.12410324      19.05971016      19.71439540 
C       8.40324621      22.87507284      18.90307215 
C      11.90842040      27.76576893      12.61464920 
C       8.74347035      27.27638070      22.64910508 
C       7.73123972      17.11715459      25.17687972 
C      10.50274890      11.26257411      16.90438631 
C      13.06491686      17.69324393       9.05252993 
C      11.42765467      27.04597591      17.42134768 
C       9.43000464      22.44910948      23.66234441 
C      10.11140791      14.78992499      21.47503667 
C      12.40334141      14.65765279      13.83519074 
C      13.09723485      22.02780815      11.52315666 
C      16.05599555      24.83786652       9.90813028 
C      12.92589494      30.06606329      19.82193008 
C      10.37372547      21.52802697      27.66531057 
C      12.02821992      11.24579514      22.46468649 
C      15.54790297      13.12399869      11.44670771 
C      16.92005437      20.42873306       8.47041389 
C      14.70610690      30.17828149      15.52095875 
C      11.19705682      26.11828568      26.53094745 
C      11.16316981      13.91371955      26.20688483 
C      14.75542978      10.41042378      15.08358629 
C      21.71250561      16.95166695       9.24448460 
C      20.39076096      29.91744117      13.84462385 
C      16.27851289      29.20232451      26.74289282 
C      15.26599800      16.00545943      30.06165776 
C      18.74235175       8.60814122      19.31130688 
C      19.40838796       8.83453478      15.33484735 
C      21.41597449      12.50212312      10.84741111 
C      21.79271970      21.07405845       8.07348526 
C      21.42226352      26.86201603      10.15352520 
C      18.91845399      32.07404422      16.94634591 
C      17.37295190      31.88836344      22.89184926 
C      14.94415869      26.61380096      29.60823975 
C      14.66032337      20.68768012      31.32892621 
C      15.13016567      12.21869653      28.49926858 
C      17.10032757       8.83385969      23.77278827 
H      31.70841832      21.96018381      25.76037320 
H      31.77235547      23.43464490      26.76999339 
H      31.25523779      23.53906060      25.05218059 
H      31.47388819      19.27179956      26.46295188 
H      31.25097625      18.87435014      28.19181524 
H      30.40460506      20.28858833      27.47357504 
H      32.18553998      17.75224946      24.26080915 
H      32.45374269      16.00351392      24.51959718 
H      31.05435960      16.82721561      25.29140468 
H      33.77577088      18.86973475      20.86988722 
H      32.37900572      17.98158087      21.56898237 
H      32.88842873      19.54703532      22.26675083 
H      33.24376239      23.53248113      22.21258554 
H      32.41950924      22.14089748      21.42754520 
H      32.54272227      22.22334198      23.20870107 
H      29.94132350      27.88059790      27.81716386 
H      29.12077879      26.93985395      29.09685030 
H      28.56934007      28.59696946      28.71453953 
H      32.24479739      27.94950144      17.80561438 
H      33.13417091      26.53907901      18.45278150 
H      32.23214619      27.61374159      19.56077183 
H      33.21207735      16.83063261      14.75041335 
H      33.79734859      16.64381182      16.43056527 
H      33.50243912      18.27474781      15.76298536 
H      29.95928711      10.11464100      24.03001394 
H      30.73751495      11.39676631      25.00547180 
H      30.95491258      11.36656399      23.23146719 
H      28.40318451      18.62451124      32.19992908 
H      28.21826620      16.93725180      31.63887437 
H      27.09910541      17.59740858      32.86693694 
H      29.87024047      27.85042783      22.83899308 
H      30.05560043      26.21675307      23.55424120 
H      29.23812536      27.51685240      24.49192719 
H      32.12092014      21.67709718      16.73108372 
H      31.75236288      21.94812414      18.46249897 
H      31.82092574      23.34539675      17.33564411 
H      31.42124614      15.09146506      18.59785606 
H      31.10211563      13.87677953      19.88597396 
H      31.21304660      15.61255030      20.30570490 
H      28.62429691      13.56280867      26.53247882 
H      28.19768921      14.29199588      28.12152915 
H      29.01603310      15.28609984      26.87531074 
H      27.50080233      23.07177547      30.24124254 
H      28.30131166      22.01133168      29.03760486 
H      27.34017169      21.28408335      30.37455530 
H      23.89371588      24.54804512      31.76593973 
H      25.41046569      25.50362514      31.77624317 
H      25.29844787      23.98369233      30.82319837 
H      28.92770786      30.62645518      20.80246880 
H      28.17088356      29.35547202      21.82124329 
H      27.22980162      30.79554770      21.35000962 
H      31.48031195      21.34382514      12.90990674 
H      30.61796530      22.04570499      14.32238105 
H      30.04133489      22.38447487      12.66643881 
H      28.67536505      11.18309334      17.34662000 
H      29.73767652      10.63136489      18.68127388 
H      29.37254727      12.38041989      18.47201555 
H      24.77893526      12.20951451      29.21518002 
H      25.88973242      12.95439762      30.40857789 
H      26.01712357      13.36647541      28.66326715 
H      24.45534557      21.50881704      32.85004538 
H      24.62979038      19.90329179      32.08320166 
H      23.49419271      20.12608157      33.45412343 
H      27.03389606      30.59667795      24.81433448 
H      26.58181670      29.30027658      25.95834614 
H      25.84559668      30.92967931      26.10996530 
H      29.76020997      27.19905186      14.17118349 
H      30.48890495      25.56931132      14.32287768 
H      29.77707882      26.36093892      15.75763774 
H      29.97008670      13.94997277      13.63750609 
H      30.24634700      13.41764777      15.32571707 
H      30.08483045      15.15770615      14.96041048 
H      25.98766861       9.26014402      25.76416835 
H      26.37492555      10.48654520      27.00758270 
H      26.83236713      10.77503929      25.30407300 
H      18.35762385      16.41226180      31.61397406 
H      18.59535300      18.18452126      31.53405443 
H      19.53669068      17.20345973      32.70466374 
H      19.51941353      29.71014194      27.56968190 
H      20.27134727      30.11802122      25.99686389 
H      21.06653429      30.61093758      27.52826391 
H      25.34138567      29.65290446      13.65511170 
H      23.68119353      30.00469153      14.21756799 
H      24.05336218      28.41781391      13.48381623 
H      25.05412069      16.57342643       9.90642123 
H      24.80208837      15.31714584      11.15246215 
H      26.38881340      15.46202122      10.33080834 
H      21.82356679       8.36173373      20.68888108 
H      21.52091716       9.00193610      22.33380663 
H      22.92270643       7.92340337      22.03334162 
H      21.54901298       8.18926655      24.78161970 
H      21.14077769       8.32415137      26.51727430 
H      22.45405423       9.33365286      25.82151178 
H      19.77308987      11.88696432      30.67275316 
H      18.46994300      12.59316476      29.66093697 
H      19.36132474      13.62283393      30.83784819 
H      18.78149155      20.11000846      33.18859277 
H      18.82170525      21.85192304      33.59063122 
H      20.19339983      21.10352319      32.70532550 
H      19.84444296      27.81177725      30.34063031 
H      19.61613054      26.86412433      31.84308439 
H      18.40856689      26.74722174      30.52003344 
H      22.06234007      33.07478248      23.51720179 
H      22.94678227      31.63712937      24.13061504 
H      21.44500469      32.18491373      24.93984220 
H      24.05120992      31.61139189      17.08053005 
H      23.91239755      32.78131625      18.43159685 
H      22.45194566      31.92049844      17.83978580 
H      26.21194807      26.53374190      10.31737814 
H      26.77979815      26.30377149      12.00529486 
H      25.61639666      27.60977722      11.61763909 
H      26.93477057      21.15489693       8.89913150 
H      25.19736137      20.80521121       9.18215911 
H      26.43091155      19.52891789       9.45685445 
H      25.71828548      12.89755936      11.53965842 
H      25.78057111      11.23483813      12.20331978 
H      26.57426977      12.58584422      13.08576769 
H      24.48341759       8.12376420      16.46456970 
H      22.81988081       8.78403591      16.63024869 
H      23.70874605       8.19614062      18.07699347 
H       8.91841814      23.66553680      14.41584991 
H       9.52009656      23.76371768      16.10398718 
H       8.97481827      22.19784772      15.43383966 
H       9.55285454      19.04942690      12.76177046 
H      10.38496633      20.40238495      13.60607664 
H       9.27426891      19.32927113      14.50488702 
H       8.34270099      16.05589697      16.51709690 
H       9.70491428      16.91393782      15.71656695 
H       8.59228122      17.80417918      16.79650755 
H       8.02845618      19.65455964      18.79774539 
H       7.14741318      18.99349449      20.20674034 
H       8.48807461      18.05830122      19.45990493 
H       8.28370118      22.27004572      17.99579721 
H       7.58875162      23.60500919      18.96397261 
H       8.40063770      22.22009654      19.78080362 
H      12.33745847      28.68192954      12.19299506 
H      10.96212503      28.00086561      13.11618145 
H      11.72942928      27.03967486      11.81685214 
H       7.84688979      26.66044283      22.78281930 
H       8.69936074      27.78545321      21.68230221 
H       8.80183440      28.01849943      23.45422313 
H       7.10260731      16.52961816      24.49767800 
H       7.38239194      18.15362674      25.18825202 
H       7.66406339      16.69801771      26.18755643 
H       9.97642117      11.49663192      15.97174209 
H       9.84748099      11.47328814      17.75430128 
H      10.77762499      10.20141802      16.91032185 
H      13.63482345      17.46022961       8.14550940 
H      12.30674126      18.45009095       8.82026184 
H      12.57403341      16.78569327       9.41540110 
H      11.57279159      27.52357521      16.44580738 
H      10.94563303      27.74165956      18.11825402 
H      10.81142726      26.14641819      17.31823926 
H       9.23927885      23.52625875      23.72715054 
H       8.88780068      21.91600365      24.45263802 
H       9.12844497      22.06617700      22.68149951 
H       9.92288253      13.74400664      21.20396553 
H       9.73762650      15.44906892      20.68380002 
H       9.63301402      15.02784701      22.43228564 
H      12.43129519      14.56468011      12.74279927 
H      11.74148510      15.48457885      14.11416226 
H      12.05048190      13.72133056      14.28400178 
H      13.13489248      21.23291272      10.76817258 
H      12.88241367      22.99263974      11.04853599 
H      12.32466119      21.80759341      12.26753833 
H      15.48709506      25.53345307       9.28128537 
H      15.41748778      24.01957405      10.25937559 
H      16.90060433      24.42792277       9.34019763 
H      13.70856831      30.73702237      19.44640284 
H      12.02408008      30.64368591      20.05229828 
H      12.70816609      29.31213934      19.05765136 
H      10.83454880      22.27829890      28.31969471 
H       9.40587907      21.22328000      28.07811420 
H      10.23950520      21.96135462      26.66822194 
H      11.27182914      10.50983709      22.17067503 
H      11.60597644      12.25603632      22.43266280 
H      12.37016139      11.03755827      23.48606403 
H      15.02147165      12.95098665      10.50158305 
H      14.83410800      13.38482083      12.23656261 
H      16.08900371      12.21541912      11.73881575 
H      17.34051281      19.95454900       7.57682956 
H      16.39049966      21.34559592       8.18366496 
H      16.22190071      19.74708960       8.96948986 
H      15.07742529      30.96402093      14.85344880 
H      13.87636113      30.57158529      16.12059729 
H      14.35229456      29.32536684      14.93152179 
H      10.41633333      25.48270504      26.96601133 
H      11.00074299      26.24638726      25.46118393 
H      11.19139791      27.09391911      27.02970127 
H      10.67533467      13.09849459      25.65877963 
H      10.76169031      14.87096265      25.85649198 
H      10.96765058      13.79779757      27.27871517 
H      14.43135813      10.62350778      14.05775159 
H      14.04249502      10.85481425      15.78683825 
H      14.80740328       9.32604258      15.23466900 
H      21.25293964      16.92994151       8.25003640 
H      22.36264027      16.07665755       9.36642803 
H      22.30431428      17.86538536       9.36383177 
H      19.75052285      30.70315882      13.42740683 
H      21.30922000      29.84499823      13.25005045 
H      20.64848203      30.16184837      14.88106484 
H      17.04303772      29.97592141      26.60296532 
H      16.66001211      28.43418768      27.42436915 
H      15.37626684      29.65750471      27.16736133 
H      14.37402404      15.54049799      30.49803621 
H      15.79257281      16.58204157      30.83141955 
H      15.93242725      15.23210809      29.66413889 
H      18.14567128       7.82522640      18.82932659 
H      19.18772087       8.20977971      20.23080442 
H      19.53990820       8.93596965      18.63511040 
H      19.74719498       8.25684500      14.46728660 
H      18.44213106       9.30258590      15.11876009 
H      19.30634646       8.16628203      16.19789490 
H      21.46737771      13.23529830      10.03354123 
H      21.10070716      11.53350507      10.44277595 
H      22.39716720      12.40205405      11.32460096 
H      22.07010278      21.80906488       7.30946651 
H      20.70656978      21.06865575       8.21406419 
H      22.12540704      20.07839701       7.75738841 
H      21.29080314      26.86111101       9.06549866 
H      22.48112251      26.72792868      10.40166570 
H      21.05750654      27.81005668      10.56707646 
H      19.43543428      32.17465071      15.98482776 
H      18.80799672      33.06320488      17.40475454 
H      17.93393068      31.61930033      16.78968374 
H      17.02274917      32.83072672      22.45541693 
H      18.45089403      31.94168795      23.08144074 
H      16.83529668      31.69581160      23.82816166 
H      15.22901448      27.65745220      29.43087146 
H      14.65978014      26.48839304      30.65910054 
H      14.10617498      26.34391234      28.95616775 
H      14.40425082      19.62300774      31.38888758 
H      13.97118114      21.26609018      31.95478616 
H      15.69178609      20.84507509      31.66380213 
H      15.07999890      11.13988408      28.68408291 
H      14.28614468      12.53774660      27.87758379 
H      15.11186473      12.75352168      29.45638231 
H      17.21239921       8.37750403      22.78148640 
H      16.40357106       8.24009584      24.37502415 
H      18.07348246       8.90027501      24.27181533 
