646
Properties=species:S:1:pos:R:3 i=115 optimized=T E=-10058.2472535004 pbc="F F F" jobid=246_80-Ag-50_0-000005-PBE
Ag      21.89508744      20.20668590      20.91542594 
Ag      24.76681106      20.21198732      21.80938243 
Ag      20.45400737      22.68924292      20.45172593 
Au      19.70100643      20.97321868      22.69764257 
Au      20.02318950      18.17497215      21.87203310 
Au      21.11097221      23.50788751      23.13815668 
Au      20.37297410      21.76230611      25.42950015 
Ag      20.70527385      18.98410598      24.60135832 
Ag      20.96443954      16.15403186      23.72737849 
Au      21.85054885      16.11898538      20.93563331 
Ag      22.74982382      16.14565217      18.11998531 
Au      23.06428521      18.92772160      17.21953916 
Ag      23.30575915      21.73638599      16.36861304 
Au      22.63117373      23.48164842      18.62397858 
Ag      21.85100198      25.20388541      20.87209306 
Au      23.34853197      22.71684442      21.36055513 
Au      22.62973782      21.00906328      23.65112536 
Au      22.88830699      18.20797919      22.79539276 
Ag      23.78960979      18.17435451      19.97149305 
Au      24.09826912      20.93797843      19.08299798 
Ag      20.87286907      14.02028421      19.04999012 
Au      21.84783564      14.07367323      16.23946578 
Au      22.17135243      16.89867892      15.26704620 
Ag      22.34844403      19.71501663      14.39801282 
Au      22.64652400      22.54724793      13.62716945 
Ag      21.96582298      24.31939997      15.87653830 
Au      21.17958886      26.06978704      18.15100495 
Au      20.43204521      27.76300635      20.50381288 
Ag      25.34142830      22.49358395      14.47909648 
Ag      24.75284218      24.32176806      16.73656783 
Ag      24.02751812      26.00184572      19.00879009 
Ag      23.17930863      27.72012174      21.29715177 
Au      22.56027151      26.03861562      23.61475051 
Au      21.81636632      24.31136420      25.85363730 
Ag      20.95707550      22.58541934      28.13756233 
Au      21.32392133      19.75341790      27.39579708 
Au      21.60122617      17.00665300      26.48446831 
Ag      21.86766114      14.14406656      25.57986740 
Ag      22.86070027      14.03865967      22.83791172 
Au      23.71192793      14.12412910      19.99813532 
Ag      24.54462363      14.09327447      17.14188041 
Au      24.93754227      16.88401583      16.23043327 
Ag      25.11764160      19.66501302      15.37412631 
Ag      23.61374251      18.99086592      25.60724301 
Au      23.75636946      16.17585114      24.66953020 
Au      24.79908729      16.14368668      21.83669505 
Ag      25.59774594      16.12970996      19.04075122 
Ag      26.04620995      18.89344454      18.09454217 
Ag      26.15262338      21.71665057      17.23476696 
Au      25.57002722      23.54882965      19.48168929 
Ag      24.71368328      25.22838015      21.73340554 
Au      24.12556938      23.57111505      24.16041593 
Ag      23.23388308      21.80979801      26.35831363 
Au      26.22135057      22.77239354      22.25379033 
Au      25.45826022      21.01210201      24.59618311 
Au      25.73626364      18.16431195      23.70674817 
Ag      26.70269473      18.13806135      20.87256183 
Au      26.95715106      20.93845334      19.95639302 
Au      27.65871280      20.18729999      22.72255863 
Ag      27.54972147      15.32772721      21.26719015 
Au      28.51406836      17.34641150      18.59877970 
Au      28.81016380      19.91729298      17.70174166 
Au      28.36796404      23.27692947      18.69784915 
Ag      27.73277623      25.00097644      20.87055634 
Au      26.61900631      25.04767345      24.18649132 
Ag      25.92913034      23.43257513      26.44395190 
Au      25.64292693      20.08791649      27.49027560 
Au      25.85266528      17.41702212      26.78500720 
Ag      26.65821118      15.42076826      23.95971543 
Ag      28.52179383      17.51260106      23.12528503 
Ag      29.34552212      19.40203829      20.58004814 
Au      28.99008757      22.34989279      21.44975415 
Au      27.99899050      22.42751211      24.50564628 
Au      27.69709986      19.38121947      25.44549964 
Au      25.57816883      13.37332389      22.19284552 
Ag      26.34689061      13.32289023      19.25036053 
Au      27.16147689      15.17080745      16.95672215 
Ag      27.57865233      17.96144890      15.83022790 
Au      27.61025757      20.86465688      14.97785417 
Au      27.47516597      23.80058403      15.91265505 
Ag      26.85734411      25.72853716      18.16162863 
Ag      25.97132935      27.44978915      20.49268609 
Au      25.07198254      27.45411458      23.39591274 
Ag      24.36177055      25.88317944      25.90582080 
Au      23.42002525      24.03792178      28.14278782 
Au      23.27363859      21.14614217      29.07236405 
Ag      23.55365780      18.26407758      28.37721712 
Ag      23.73757236      15.40144530      27.43304178 
Ag      24.67343483      13.52737030      25.10118486 
Ag      24.11213012      11.64662003      15.36080770 
Au      24.09807431      14.84159156      14.35547184 
Ag      24.21311514      17.64481461      13.45496817 
Ag      24.43775441      20.45297691      12.58093446 
Ag      25.37226490      23.33235483      11.58269729 
Au      24.08148227      25.10379167      14.04690424 
Ag      23.28871804      26.86651270      16.23836192 
Au      22.52305646      28.47871584      18.59400524 
Ag      22.27728362      30.61352074      20.85381136 
Ag      21.23699500      28.60311698      23.30546617 
Au      20.33003678      26.84817960      25.47596993 
Ag      19.62150087      25.13083735      27.71966612 
Ag      19.20587932      23.56467331      30.38877104 
Au      19.21668813      20.50577287      29.22621027 
Ag      19.45601173      17.67328381      28.41092447 
Au      19.79186150      14.92348833      27.42890136 
Ag      20.40522127      11.88874494      27.02513030 
Ag      21.01695353      11.97882982      23.79648512 
Au      21.80264305      12.00009110      20.99217846 
Au      22.75017625      12.06730867      18.17035107 
Ag      29.38014659      14.27484755      23.43592808 
Au      31.48189573      18.31117720      18.18513152 
Au      30.70803621      24.96849883      19.94268427 
Ag      28.52494908      24.99508635      26.49937110 
Ag      27.98497582      18.47454894      28.60506284 
Au      28.86002706      27.77628688      18.85845119 
Au      30.28642642      18.66821298      14.83213878 
Au      27.94421141      11.68355527      21.76241273 
Ag      25.49537977      16.62269696      29.91566246 
Au      25.96609810      26.36714634      28.36967747 
Ag      26.40390477      26.64715268      15.23144876 
Au      23.21047497      28.87163716      25.69887439 
Ag      21.52436195      18.98825604      30.57042497 
Ag      23.93867429      11.10045098      23.34644865 
Au      27.03080176      15.83092335      13.63102374 
S      29.68645987      22.90567090      26.21779893 
S      29.51239203      18.36535442      26.73880726 
S      30.66419384      16.24801841      22.99789515 
S      31.81900273      19.55200804      20.14324578 
S      30.99723813      23.70395717      21.89829407 
S      27.81894400      27.20499070      27.17024843 
S      30.56712477      26.35472487      18.04091137 
S      31.41389689      17.07928509      16.17288534 
S      28.57965269      12.06939513      24.01063868 
S      26.90827971      18.39955801      30.75644084 
S      28.00118467      26.58922250      22.81486891 
S      29.85708327      22.07961968      17.10816826 
S      29.07092362      15.04681466      19.28956490 
S      26.68989163      15.08639221      26.44048584 
S      26.22140110      22.19014577      28.61195204 
S      24.16270437      25.73939442      29.73948927 
S      27.30427888      29.36701990      19.58935763 
S      29.30106281      20.17286684      13.32562244 
S      27.42049490      11.08280809      19.55287302 
S      24.11859755      14.65323015      29.75543212 
S      22.69664580      20.96227064      31.43282266 
S      24.93437629      29.72831498      24.33181521 
S      28.11238346      25.29984889      14.09553963 
S      27.92952263      14.05315292      14.90833827 
S      24.33867160      11.16934421      25.75744626 
S      20.27416140      16.91049248      30.63506133 
S      21.40876101      28.33128294      27.11284199 
S      25.04066972      28.57592788      15.76610236 
S      26.23365867      17.35638272      12.01554742 
S      23.29442770      10.07652775      21.22604980 
S      20.19088627      10.19689258      25.33125078 
S      20.76384293      13.28049282      28.97000304 
S      18.25565089      21.50980869      31.24164892 
S      20.32331019      25.66585799      30.03790094 
S      21.01578208      31.05539690      22.84848147 
S      23.84651505      30.47895285      19.01479996 
S      24.54911530      25.59467549      11.65767490 
S      26.42135538      21.20001221      11.26023016 
S      24.17003901      12.68724552      13.18990328 
S      24.38040173      10.39812670      17.40650236 
C      31.32718938      23.21760424      25.46454185 
C      30.88409989      19.55501213      26.98160264 
C      31.71091024      16.54247420      24.47764027 
C      32.84585520      18.53547345      21.26838510 
C      32.54439791      22.73924602      21.71948285 
C      28.96509214      27.76533057      28.49812528 
C      32.06235570      27.42560883      18.10252673 
C      33.13317836      17.11636020      15.52106480 
C      30.07888167      11.02349099      24.23742923 
C      28.05641599      17.54679764      31.91854844 
C      29.70373553      26.72053847      23.48828353 
C      31.58742752      22.16565258      17.70045794 
C      30.87638812      14.91764322      19.60540486 
C      28.37752343      14.78551424      27.10316055 
C      27.93525923      22.02895449      29.24822953 
C      24.91152196      24.74025690      31.08437684 
C      28.05053891      30.05852351      21.12014864 
C      30.42900742      21.62127276      13.31499197 
C      28.99930057      11.25231362      18.63004645 
C      25.30099739      13.26563389      29.51941138 
C      24.13720851      20.38833277      32.41144824 
C      26.34665926      30.14071844      25.42302863 
C      29.74602237      26.07533967      14.39773224 
C      29.74861730      14.08542495      14.69879949 
C      25.94738364      10.34827598      26.08420692 
C      18.92005983      17.28192192      31.82268147 
C      20.39494082      29.86352405      27.09650793 
C      24.59085954      29.22283486      14.10327898 
C      25.67288934      16.24410184      10.66198175 
C      22.18555121       8.70078400      21.73277364 
C      21.41748871       8.89207450      25.74305929 
C      19.50197891      12.86162708      30.22988314 
C      19.19621673      21.11254220      32.76864405 
C      19.21525522      26.96695726      30.70874473 
C      22.08498984      32.13647205      23.88243335 
C      23.41397966      31.72919742      17.74905512 
C      25.99620515      26.69126441      11.38074151 
C      26.12388177      20.75301562       9.50391494 
C      25.81503536      12.30971405      12.46940064 
C      23.51833046       8.79143191      17.23132409 
Ag      19.00662009      20.19415543      19.99698298 
Ag      16.16200127      20.20223546      19.08812906 
Ag      21.19623351      20.97651052      18.19950196 
Au      20.90730587      18.19782932      19.04812479 
Ag      19.76843054      23.50217789      17.76178319 
Au      20.50715554      21.76700867      15.52807110 
Ag      20.22046222      18.97677585      16.30848663 
Au      19.99616378      16.17194922      17.21380341 
Ag      19.01994345      16.13463077      19.96720994 
Au      18.19479977      16.13284826      22.79413694 
Ag      17.85176648      18.91483416      23.67868995 
Au      17.58211499      21.72802002      24.53914114 
Ag      18.23228289      23.47896684      22.29512511 
Au      19.04735675      25.14979455      20.07567434 
Ag      17.55449159      22.69621035      19.54845906 
Ag      18.30271213      20.99575279      17.28622932 
Au      18.01807120      18.20329012      18.10892251 
Au      17.07917430      18.15103131      20.92399278 
Au      16.80703788      20.94631463      21.80504170 
Au      20.01953963      13.99186846      21.89619519 
Au      19.11788619      14.06629255      24.71017811 
Ag      18.78705305      16.87403628      25.61588004 
Au      18.52053777      19.66740498      26.52278308 
Au      18.20352949      22.56957668      27.32380561 
Au      18.91191404      24.33867423      25.07175413 
Ag      19.73137576      26.05981843      22.78597855 
Au      15.48863351      22.47388528      26.40400989 
Ag      16.06256236      24.28269651      24.18135114 
Ag      16.86572090      25.98900010      21.95053005 
Au      17.63646033      27.68818401      19.67952551 
Au      18.29135369      26.03893729      17.32789748 
Ag      19.08212221      24.31491522      15.07434437 
Au      19.87092014      22.60576551      12.78824070 
Au      19.52897655      19.74661089      13.49515273 
Au      19.35152042      16.99157775      14.42850170 
Au      19.08061597      14.08905881      15.36101025 
Au      18.05464276      14.00943507      18.11027164 
Ag      17.23830790      14.07406850      20.90016631 
Ag      16.41406807      14.08116162      23.77884318 
Au      15.98399582      16.86183895      24.66280372 
Ag      15.77805189      19.61468932      25.51590558 
Au      17.28880613      18.98490761      15.32668848 
Au      17.12668571      16.16871754      16.23018236 
Au      16.07355575      16.07644203      19.01080371 
Ag      15.33928184      16.07660632      21.84377443 
Ag      14.87973283      18.84832351      22.74312538 
Ag      14.75182606      21.65154791      23.66653309 
Au      15.35387439      23.52400976      21.44689386 
Ag      16.18741015      25.21654527      19.21358922 
Au      16.83130216      23.54794708      16.80300843 
Au      17.67144709      21.82120364      14.57236990 
Au      14.72884192      22.73493257      18.61415463 
Ag      15.44329741      21.00386501      16.29899617 
Ag      15.18610499      18.15135312      17.16212128 
Ag      14.24728837      18.12304406      19.98819419 
Ag      13.96794262      20.98643752      20.91357744 
Ag      13.34685551      20.19822232      18.13426649 
Ag      13.31033916      15.27842705      19.68285164 
Ag      12.41179213      17.29841571      22.19233820 
Au      12.21237253      19.91764430      23.13730479 
Au      12.46484863      23.32101697      22.07180830 
Au      13.20240543      25.02883295      20.04751516 
Ag      14.30183033      24.95533486      16.73442946 
Ag      15.05068282      23.42959621      14.47409974 
Ag      15.24644434      20.03230857      13.52135265 
Ag      15.06843915      17.27152897      14.23124028 
Ag      14.15574795      15.38154651      16.97193501 
Ag      12.39285192      17.54355471      17.88738591 
Au      11.68181507      19.41946802      20.25634833 
Au      11.96992838      22.38586551      19.26297815 
Ag      12.91022317      22.38456228      16.34447756 
Au      13.22891600      19.30704556      15.47303546 
Ag      15.35807269      13.33143706      18.77525566 
Au      14.60386699      13.34585939      21.67704403 
Au      13.73126616      15.19338380      23.95803457 
Ag      13.32610682      17.94919135      24.96125908 
Au      13.26376970      20.76854654      25.92428043 
Ag      13.25208332      23.65991346      24.96150417 
Ag      13.99459560      25.70957561      22.79786341 
Ag      14.91437485      27.49359314      20.52585754 
Ag      15.72037966      27.49538183      17.54262135 
Ag      16.54168492      25.89071837      15.10176702 
Ag      17.40949187      24.08735499      12.78660690 
Ag      17.47866559      21.09614394      11.81245885 
Au      17.31115368      18.16906736      12.56193368 
Au      17.25821375      15.28658475      13.52712804 
Ag      16.19820725      13.51637732      15.78833013 
Ag      16.80121450      11.70348542      25.60475246 
Ag      16.93535466      14.83765851      26.57871521 
Au      16.71049246      17.64121055      27.44764116 
Ag      16.39572772      20.42056970      28.31929077 
Au      15.27817233      23.26031633      29.33161009 
Ag      16.70388919      25.10936709      26.88127446 
Au      17.58126945      26.79984847      24.68046400 
Au      18.37457501      28.51576925      22.39579377 
Ag      18.50134572      30.56518912      20.05423109 
Ag      19.60636743      28.58890197      17.67858637 
Au      20.49711214      26.81981914      15.51935166 
Ag      21.24187740      25.15975117      13.21244657 
Au      21.41412040      23.67951699      10.41104150 
Au      21.62238958      20.49151599      11.69499040 
Ag      21.44673241      17.71697232      12.49909007 
Au      21.22232676      14.97040003      13.47080831 
Au      20.35978520      11.82948034      13.77287179 
Au      19.90452098      11.98895895      17.19750922 
Ag      19.09245936      11.95832987      19.98816503 
Ag      18.20001169      12.00134717      22.78907318 
Au      11.30134252      14.31629924      17.52105327 
Au       9.47841563      18.35131604      22.69637590 
Au      10.13749461      24.94967277      20.76714103 
Ag      12.42324340      24.87463315      14.35080238 
Au      13.04359950      18.38223035      12.12813706 
Au      11.91941230      27.71915122      22.15157886 
Au      10.60238892      18.55380403      26.02077452 
Ag      12.87156627      11.95291944      19.45819079 
Au      15.63421205      16.50644833      10.80111985 
Ag      14.94951657      26.28475258      12.69125692 
Au      14.19887450      26.64205036      25.68113491 
Au      17.61406956      28.76139619      15.22862896 
Ag      19.31932302      18.93445669      10.40168369 
Ag      17.02136465      11.05448980      17.67006145 
Ag      14.02590011      15.70835359      27.00316025 
S      11.30628280      22.75431873      14.46931299 
S      11.55682686      18.27671231      13.93927846 
S      10.18118940      16.35370599      17.82031250 
S       9.25687780      19.68225768      20.77882203 
S       9.93169422      23.72085182      18.77341821 
S      13.04582278      27.15303394      13.89647381 
S      10.14625751      26.25988897      22.73029522 
S       9.49208990      17.00166842      24.62649280 
S      12.16275175      12.15351102      17.15942823 
S      14.36831859      18.40572763      10.17576253 
S      13.13353721      26.65516053      18.17829815 
S      11.15609245      22.11780429      23.75245757 
S      11.68538999      14.99787739      21.59552822 
S      14.10026423      14.94178194      14.51932559 
S      14.94420585      22.18123324      12.26767251 
S      16.79222304      25.89711774      11.21195597 
S      13.57128691      29.29944550      21.64682221 
S      11.57676012      20.02449268      27.56305136 
S      13.46239388      11.17165767      21.65133964 
S      16.85031064      14.54375542      11.23400553 
S      18.32961265      20.97333965       9.49210388 
S      15.95856026      29.78288489      16.55855111 
S      12.60821649      25.27126309      26.76184616 
S      12.96541297      13.82898830      25.84829373 
S      16.40484366      11.09887488      15.31829805 
S      20.61769398      16.87502603      10.29760197 
S      19.37334829      28.15235106      13.77379440 
S      15.67588364      28.32865928      24.94308887 
S      14.77896750      17.10277889      28.84363078 
S      17.52635975      10.03489183      19.82497744 
S      20.61867480      10.28860767      15.52988864 
S      20.21006553      13.32779287      11.96385876 
S      22.53301527      21.71311021       9.74538441 
S      20.41695163      25.75032851      10.89270512 
S      19.87080954      31.02757794      18.13357941 
S      16.99996364      30.51869700      21.95426478 
S      16.16170902      25.44441944      29.30509139 
S      14.35634105      21.11225720      29.60097317 
S      16.77297878      12.67165721      27.80407462 
S      16.44561332      10.45152467      23.58801873 
C       9.62244719      23.09067397      15.12126972 
C      10.19802041      19.44274145      13.54993273 
C       9.26202191      16.66074436      16.26397167 
C       8.17971696      18.77135321      19.61076165 
C       8.40898495      22.71369069      18.92810255 
C      11.90021930      27.75437207      12.58214068 
C       8.65367223      27.32849736      22.61640193 
C       7.76136986      17.03669852      25.24970282 
C      10.68164243      11.06039251      17.07014173 
C      13.25307222      17.78683769       8.84940884 
C      11.43780560      27.04540427      17.58102514 
C       9.37742021      22.31101650      23.34316020 
C       9.89568055      14.99991687      21.18036628 
C      12.40299984      14.54968345      13.93216205 
C      13.40557118      22.20574953      11.25887341 
C      16.13502573      24.92530285       9.79725964 
C      12.91675040      30.18608546      20.17462281 
C      10.44573510      21.46911327      27.62898232 
C      11.99760742      11.44518677      22.72082106 
C      15.59251019      13.22707999      11.45314187 
C      16.98469962      20.47476048       8.34767582 
C      14.58084203      30.22631851      15.43291223 
C      10.98045466      26.05489682      26.44158643 
C      11.15374242      13.97503411      26.08389834 
C      14.75970528      10.30369301      15.14954441 
C      21.93047203      17.27764015       9.07412208 
C      20.36713810      29.69411248      13.66835961 
C      16.05189682      29.25883383      26.48235563 
C      15.37755644      15.90650366      30.10257355 
C      18.59344359       8.61067816      19.35576641 
C      19.38957303       8.95452574      15.26058838 
C      21.46292092      12.81410381      10.73198544 
C      21.75776053      21.19300015       8.16604268 
C      21.51346562      27.00487876      10.12461210 
C      18.87054661      32.10814369      17.03321004 
C      17.48356742      31.87401103      23.08891162 
C      14.74728070      26.57050040      29.62403197 
C      14.61337606      20.68210210      31.36620966 
C      15.12332543      12.24838558      28.49743362 
C      17.20558789       8.79691465      23.81062762 
H      31.76641980      22.24782571      25.19962329 
H      31.95917882      23.71216376      26.21129731 
H      31.25241646      23.83647876      24.56489789 
H      31.48431844      19.57297501      26.06364214 
H      31.50139026      19.20287203      27.81614392 
H      30.50823844      20.56316380      27.18682749 
H      32.30482436      17.44555959      24.28891856 
H      32.38543820      15.69031022      24.61457140 
H      31.10159119      16.69636616      25.37444492 
H      33.81898387      18.35444022      20.79930629 
H      32.35524007      17.58814709      21.51703530 
H      32.98722017      19.11983736      22.18637141 
H      33.38215476      23.44125426      21.64189508 
H      32.51791964      22.07287745      20.85185753 
H      32.65165488      22.13769750      22.63078831 
H      29.91079932      28.05024832      28.02199357 
H      29.14822332      26.97646921      29.23292204 
H      28.52691612      28.63882055      28.99436525 
H      31.95430945      28.19898191      17.33307182 
H      32.93354439      26.79940203      17.87793248 
H      32.18201762      27.89099103      19.08464818 
H      33.12138424      16.68881697      14.51165442 
H      33.75466034      16.49757115      16.17864493 
H      33.52764746      18.13561001      15.48945407 
H      29.77283740       9.97102090      24.22925349 
H      30.51688828      11.26970906      25.21195749 
H      30.81549565      11.19853421      23.44835916 
H      28.85065891      18.24918360      32.19710515 
H      28.50287579      16.65483465      31.47024820 
H      27.49380498      17.26087441      32.81495238 
H      30.31873235      27.25474529      22.75363515 
H      30.13302692      25.72935971      23.66396467 
H      29.65752174      27.28653278      24.42642027 
H      32.17847184      21.42750118      17.14445903 
H      31.65149030      21.95118142      18.77046186 
H      31.95452397      23.17961688      17.50032191 
H      31.39755794      15.01871263      18.64672551 
H      31.06990370      13.93049072      20.04272967 
H      31.20635533      15.69598740      20.29997470 
H      28.71834115      13.81854284      26.71344092 
H      28.32458093      14.75326733      28.19798732 
H      29.06075197      15.58168826      26.78907093 
H      28.25332733      23.01586277      29.60690308 
H      28.62099126      21.69096732      28.46522282 
H      27.92373020      21.31137401      30.07774905 
H      24.07982054      24.30214269      31.65039351 
H      25.49827145      25.40209332      31.73076708 
H      25.53658746      23.93763456      30.67695603 
H      28.93793811      30.64575751      20.86107421 
H      28.30666701      29.26629549      21.83280060 
H      27.29170331      30.71396837      21.56594561 
H      31.35757297      21.34262032      12.80464811 
H      30.63519599      21.96819964      14.33375375 
H      29.91535242      22.41301833      12.75513496 
H      28.76654026      11.06681237      17.57391410 
H      29.71325329      10.50175310      18.98566649 
H      29.41750333      12.25936465      18.73407283 
H      24.71412309      12.37847875      29.25077859 
H      25.83525300      13.08416323      30.45854158 
H      26.01307202      13.47713645      28.71367032 
H      24.78993839      21.25036569      32.59328192 
H      24.70600271      19.61263990      31.88847720 
H      23.76731750      19.99951873      33.36746015 
H      27.18642484      30.41275716      24.77185047 
H      26.63325727      29.29206279      26.05316862 
H      26.06765414      31.00032665      26.04295593 
H      29.81338588      26.98522264      13.78980909 
H      30.52289062      25.36716272      14.08550457 
H      29.88460544      26.32086909      15.45548838 
H      29.98376789      13.84005750      13.65690197 
H      30.16415413      13.31681165      15.36195269 
H      30.16768684      15.06121671      14.96356549 
H      25.83044151       9.26844033      25.93766607 
H      26.22065491      10.54662135      27.12761549 
H      26.73366177      10.73125437      25.42409183 
H      18.23007314      16.42930554      31.82100315 
H      18.37337071      18.18880595      31.54172098 
H      19.34343524      17.39837727      32.82707296 
H      19.45732517      29.63819091      27.61901091 
H      20.17822434      30.18772771      26.07268031 
H      20.93891924      30.64751120      27.63583934 
H      25.47921414      29.66454949      13.63711141 
H      23.82939190      30.00050867      14.23867846 
H      24.18841134      28.43250158      13.46009230 
H      25.16370101      16.86974077       9.91862627 
H      24.97935922      15.48063080      11.03025847 
H      26.54733440      15.76962928      10.20272221 
H      21.65171541       8.34379013      20.84396015 
H      21.46040110       9.02290311      22.48834228 
H      22.80774405       7.89253310      22.13535375 
H      21.44897735       8.17542666      24.91389596 
H      21.08360002       8.37997525      26.65247707 
H      22.41299791       9.32349968      25.89691449 
H      19.83838429      11.96168948      30.75838865 
H      18.52150823      12.68453249      29.77353268 
H      19.45094521      13.70446717      30.93007557 
H      19.00942101      20.06643278      33.03710044 
H      18.81728650      21.76673773      33.56304230 
H      20.27076542      21.27100665      32.63283243 
H      19.53159389      27.92669847      30.28305873 
H      19.33145715      26.99678136      31.79837103 
H      18.16761234      26.77058669      30.45476444 
H      22.08129193      33.14148399      23.44520743 
H      23.10913669      31.75440114      23.93667476 
H      21.66175879      32.17764056      24.89310699 
H      23.88557304      31.41881707      16.80865189 
H      23.82968483      32.69157392      18.07078181 
H      22.32796557      31.80932842      17.62698408 
H      26.23901915      26.65587593      10.31208593 
H      26.85945404      26.36864402      11.97216618 
H      25.72078674      27.71554678      11.65732421 
H      26.81017516      21.32762661       8.87128472 
H      25.08922618      20.95801954       9.20792360 
H      26.33930472      19.68307976       9.39551997 
H      25.99044362      12.98648799      11.62488423 
H      25.78653489      11.27385414      12.11070029 
H      26.61509809      12.43336365      13.20552309 
H      24.18441441       8.10390113      16.69633111 
H      22.57720054       8.90195108      16.68156644 
H      23.32638005       8.40749763      18.24060197 
H       9.04895932      23.64085038      14.36688394 
H       9.66061288      23.66418602      16.05350884 
H       9.13649877      22.12555730      15.31115663 
H       9.67163580      19.08509128      12.65803390 
H      10.57864658      20.45846362      13.39617223 
H       9.51320266      19.43564359      14.40705928 
H       8.50912919      15.87629389      16.13030115 
H       9.93242504      16.69752449      15.39920935 
H       8.75980725      17.63020943      16.37405984 
H       8.13968676      19.35908292      18.68506700 
H       7.17538233      18.69895530      20.04307672 
H       8.57517657      17.77451722      19.38971706 
H       8.34237319      22.08785065      18.02942172 
H       7.54581602      23.38751388      18.97023227 
H       8.44022693      22.07431090      19.81632406 
H      12.31884693      28.67104669      12.15060671 
H      10.93142511      27.97873634      13.04332661 
H      11.76314105      27.01011415      11.79258747 
H       7.77122375      26.68967441      22.73741106 
H       8.60668332      27.84857370      21.65576222 
H       8.69830020      28.05758335      23.43390639 
H       7.14329802      16.45738362      24.55402749 
H       7.38057477      18.05896887      25.32199077 
H       7.75019136      16.56279321      26.23817526 
H      10.16102787      11.25528343      16.12564778 
H      10.00155498      11.23258973      17.90894631 
H      11.03368475      10.02209749      17.08794534 
H      13.86576306      17.59836743       7.96001371 
H      12.51682312      18.56946258       8.63261153 
H      12.74351302      16.86803630       9.15200067 
H      11.53746176      27.56537799      16.62089697 
H      10.94668036      27.68774440      18.32099776 
H      10.86264645      26.12232861      17.45269009 
H       9.10323323      23.35866981      23.51172852 
H       8.80975050      21.65145668      24.01075566 
H       9.18748018      22.03339893      22.30173229 
H       9.67409220      14.09617006      20.59999607 
H       9.62501401      15.88152874      20.59192176 
H       9.33048932      14.99448496      22.11957418 
H      12.44041235      14.39915851      12.84669342 
H      11.72168399      15.37516992      14.16244888 
H      12.06520997      13.63398035      14.43054242 
H      13.47288246      21.41110223      10.50733174 
H      13.32256381      23.18262875      10.76797631 
H      12.53534238      22.04208773      11.90364918 
H      15.48527743      25.56380519       9.18889066 
H      15.58626257      24.04073910      10.13923588 
H      16.99708229      24.59960607       9.20197153 
H      13.72295247      30.84396162      19.82625735 
H      12.04907614      30.78837945      20.46458050 
H      12.64752426      29.49201999      19.37129570 
H      10.95960439      22.23942895      28.21779643 
H       9.51782215      21.17132668      28.12975302 
H      10.23544175      21.85560080      26.62614445 
H      11.26930335      10.65084266      22.52139624 
H      11.55252291      12.42968103      22.53448400 
H      12.33572607      11.39136032      23.76332038 
H      15.13156087      13.01442742      10.48225544 
H      14.83655422      13.52504713      12.18779473 
H      16.12426710      12.34016947      11.82037725 
H      17.42670548      20.02931845       7.44910006 
H      16.42562635      21.37621390       8.06875476 
H      16.30164887      19.75925771       8.81700248 
H      14.92424640      30.98795025      14.72448901 
H      13.78218694      30.64324788      16.05888044 
H      14.20164761      29.34997266      14.89529040 
H      10.22023139      25.39721622      26.88100260 
H      10.78929016      26.16403495      25.36890065 
H      10.94417220      27.03317014      26.93314709 
H      10.65616692      13.40011368      25.29393301 
H      10.82247936      15.01637245      26.03310751 
H      10.90333045      13.55030408      27.06328893 
H      14.43127301      10.42906102      14.11065830 
H      14.02089271      10.76119498      15.81580519 
H      14.85317715       9.23533286      15.37463433 
H      21.47917327      17.38634247       8.08114339 
H      22.64525802      16.44581635       9.05639828 
H      22.45840832      18.19898412       9.34200588 
H      19.79543732      30.43793079      13.10152099 
H      21.29203675      29.44996602      13.13153079 
H      20.60962433      30.08162411      14.66359440 
H      16.86208158      29.96060877      26.24884455 
H      16.36658702      28.58763797      27.28821091 
H      15.15564597      29.81451972      26.78155977 
H      14.50548108      15.41352321      30.54828725 
H      15.91495544      16.46831907      30.87560722 
H      16.04594731      15.15784805      29.66211426 
H      17.98308570       7.86204899      18.83760132 
H      18.99814470       8.17276276      20.27634355 
H      19.42173222       8.92281453      18.71084111 
H      19.70108982       8.38317012      14.37859350 
H      18.38528897       9.36764602      15.11535044 
H      19.40398337       8.30468034      16.14363072 
H      21.54385636      13.63613444      10.00988440 
H      21.09927368      11.91099803      10.22820238 
H      22.43259502      12.62383525      11.20543829 
H      22.03318714      21.92771780       7.40075888 
H      20.66796136      21.13416237       8.26568769 
H      22.16536800      20.21142028       7.89762812 
H      21.40602365      26.95641545       9.03512307 
H      22.56014007      26.84565887      10.40774689 
H      21.17204961      27.98503173      10.48018203 
H      19.37756859      32.17582927      16.06335834 
H      18.81856767      33.10484281      17.48601672 
H      17.86182005      31.70793439      16.88805960 
H      17.12217933      32.81902889      22.66608740 
H      18.57151118      31.91446537      23.21730009 
H      16.99328039      31.69743961      24.05396813 
H      15.10133579      27.59949309      29.48848596 
H      14.41925058      26.43152699      30.66028504 
H      13.91996905      26.36955866      28.93504101 
H      14.38178659      19.61451629      31.46664789 
H      13.92162972      21.26831204      31.98144151 
H      15.64712238      20.87103121      31.67617589 
H      15.12166158      11.18151415      28.74818849 
H      14.32090496      12.46648624      27.78499560 
H      14.97030810      12.83564988      29.41059555 
H      17.33239940       8.36084027      22.81229935 
H      16.51817355       8.17621412      24.39686503 
H      18.17430514       8.86386120      24.31834892 
