646
Properties=species:S:1:pos:R:3 i=101 optimized=T E=-10243.3473625223 pbc="F F F" jobid=246_80-Ag-69_9-000010-PBE
Ag      21.86265971      20.18260893      20.90442456 
Ag      24.70810276      20.18808826      21.81924332 
Ag      20.44725993      22.68978336      20.46874352 
Ag      19.73406444      20.95001367      22.74527021 
Ag      20.02154509      18.14514852      21.89218628 
Au      21.15409692      23.49200086      23.20821463 
Ag      20.42936380      21.74659978      25.44017179 
Ag      20.71061332      18.92951596      24.62058880 
Ag      20.96409287      16.12204381      23.75626615 
Ag      21.86481498      16.09639237      20.96502227 
Ag      22.73561849      16.09768490      18.13824670 
Ag      23.05898312      18.89243917      17.23330568 
Ag      23.30899737      21.71835999      16.36242731 
Ag      22.61507771      23.46281881      18.61137278 
Au      21.81568229      25.18295914      20.88988228 
Au      23.33047800      22.68542288      21.37072605 
Ag      22.59402970      20.96621629      23.63395067 
Ag      22.86304045      18.16892793      22.80409390 
Au      23.75101990      18.14583838      19.97676811 
Ag      24.03410837      20.93371821      19.09730957 
Ag      20.86673786      14.01420187      19.05949890 
Ag      21.84846592      14.01156999      16.20295910 
Ag      22.11862430      16.82599989      15.35208972 
Ag      22.35524465      19.71920877      14.42991405 
Ag      22.67016509      22.52437843      13.56954444 
Ag      21.96892856      24.28801600      15.87546892 
Au      21.18719134      26.06320516      18.13353265 
Au      20.43793667      27.76999379      20.46788698 
Ag      25.39597026      22.47568534      14.52597447 
Ag      24.78014110      24.25219622      16.72153194 
Ag      23.97296264      25.96110250      18.98865564 
Ag      23.18445865      27.72563295      21.30456923 
Ag      22.59838980      26.07577613      23.66502464 
Ag      21.84912107      24.31498320      25.89026954 
Au      21.08891047      22.51987153      28.13063526 
Au      21.41559277      19.73233996      27.39945373 
Ag      21.60854321      16.95197066      26.48253426 
Ag      21.88059138      14.09369068      25.63057922 
Au      22.85563928      14.02305321      22.89456758 
Ag      23.67846608      14.05689271      20.06137597 
Au      24.55895668      14.10598934      17.17211224 
Ag      24.94133794      16.81836595      16.26028689 
Ag      25.15080464      19.64749376      15.41808427 
Ag      23.60481290      18.95668108      25.57129577 
Ag      23.76180656      16.16662173      24.69610007 
Au      24.75175058      16.10585855      21.91109382 
Ag      25.51778446      16.08820323      19.06262310 
Ag      25.96542373      18.87123851      18.12530805 
Ag      26.11389778      21.67196403      17.24906083 
Au      25.53102128      23.41989282      19.51461979 
Au      24.69213076      25.21502633      21.71853744 
Ag      24.07161967      23.55512489      24.12429225 
Ag      23.24966029      21.77449033      26.30900399 
Ag      26.16562553      22.72547468      22.28354018 
Ag      25.43248049      20.96230914      24.56824113 
Ag      25.70611073      18.15296414      23.70498729 
Ag      26.60872530      18.14684708      20.88834192 
Ag      26.92974745      20.94069942      19.99050246 
Ag      27.57094562      20.18431789      22.71383092 
Ag      27.49257303      15.33447517      21.23097410 
Ag      28.35777316      17.34423738      18.68327090 
Ag      28.62604527      19.96341254      17.70931896 
Ag      28.39185231      23.24630001      18.87916718 
Ag      27.67430308      25.03968695      20.94814367 
Ag      26.68272625      24.90547067      24.17423300 
Ag      25.88441380      23.33872956      26.37655714 
Ag      25.69065590      19.98966070      27.35173956 
Ag      25.86798017      17.27871101      26.63635849 
Ag      26.70423248      15.44064183      23.96270518 
Ag      28.50275308      17.51679259      22.97219727 
Ag      29.26447416      19.39210660      20.56614403 
Au      28.89923865      22.39489382      21.58179147 
Au      27.93626014      22.31037997      24.55121357 
Au      27.68713292      19.26109016      25.36953872 
Au      25.57716934      13.35484327      22.22222169 
Ag      26.31224820      13.29678045      19.32393360 
Ag      27.26986087      15.13297216      17.02387696 
Ag      27.52766365      17.93114952      15.90897578 
Ag      27.71009240      20.80367259      15.00776220 
Ag      27.62482183      23.73442353      15.98723109 
Au      26.80200176      25.62484526      18.19378244 
Au      25.88157061      27.46642242      20.45459400 
Ag      25.25437178      27.39464269      23.42446301 
Ag      24.41193639      25.80105345      25.86275794 
Ag      23.55579377      24.02344926      28.12823029 
Ag      23.46282113      21.03216145      29.09397572 
Ag      23.62067798      18.15467719      28.30076987 
Au      23.70099503      15.32363726      27.41532944 
Ag      24.76068635      13.50891727      25.13445352 
Au      24.26581467      11.68676181      15.25963017 
Ag      24.04566135      14.85009293      14.35839826 
Ag      24.15431278      17.64962622      13.55963969 
Ag      24.46733419      20.43378040      12.63976992 
Ag      25.33750085      23.36727841      11.64888920 
Ag      24.09943231      25.07422326      14.02533827 
Ag      23.29828347      26.77492071      16.27956679 
Ag      22.55786788      28.52306906      18.55011460 
Ag      22.30416949      30.58882281      20.96379667 
Ag      21.15133738      28.58543644      23.22575949 
Ag      20.38645341      26.85880698      25.50333789 
Au      19.68601804      25.04471811      27.70645644 
Ag      19.33769050      23.50414835      30.45381172 
Ag      19.28602284      20.48594662      29.25327482 
Au      19.47438098      17.68328218      28.34263098 
Ag      19.76238072      14.91218602      27.48974334 
Ag      20.37239533      11.86868227      27.00393848 
Au      20.99444380      12.01810074      23.79408272 
Au      21.79511999      11.98833260      20.97856125 
Au      22.73087210      12.05790838      18.20992178 
Ag      29.49932648      14.42331446      23.27116954 
Ag      31.15768023      18.40128485      18.10703239 
Au      30.67918855      24.96712822      20.09822417 
Au      28.50548036      24.96797217      26.70787395 
Au      27.98152224      18.36426917      28.67228139 
Ag      28.79492570      27.57686087      19.00334632 
Ag      30.17586503      18.68198734      14.89875155 
Au      27.95824781      11.69395044      21.74101624 
Ag      25.45624521      16.44396049      29.80607566 
Au      25.77884609      26.43333752      28.39879501 
Ag      26.39530486      26.59919856      15.38124240 
Ag      23.19991018      28.56713926      25.47428220 
Ag      21.63125504      18.97856732      30.51001116 
Ag      23.93287987      11.07327616      23.33181759 
Au      26.97952086      15.79427830      13.80999613 
S      29.52239998      22.87306946      26.41100467 
S      29.45466029      18.29364829      26.84331853 
S      30.74922163      16.42159709      22.79075612 
S      31.65442019      19.83951149      19.96055328 
S      30.92581297      23.75622774      22.09784748 
S      27.65583650      27.12828364      27.13581504 
S      30.64964780      26.27311339      18.14051088 
S      31.25817833      16.95486515      16.18664006 
S      28.77984418      12.19992784      23.90043404 
S      26.68287038      18.36343512      30.63459515 
S      27.94169009      26.65173161      22.89564609 
S      29.64042063      22.18351534      16.98576946 
S      28.93172904      14.94135182      19.17662619 
S      26.83908604      14.92949156      26.39727570 
S      25.86952083      22.15708819      28.62190065 
S      23.94358053      25.90684755      29.75119002 
S      27.25623361      29.31324649      19.64801351 
S      29.33197238      20.17150245      13.22752349 
S      27.23064749      10.98190556      19.62417865 
S      24.18969844      14.40357754      29.64260737 
S      22.67875634      20.95233388      31.45996095 
S      24.88778527      29.72726688      24.16120374 
S      28.06171877      25.32607245      14.13558272 
S      27.83469337      13.89593272      14.92604651 
S      24.44558016      11.11194197      25.71720407 
S      20.28202689      16.95473670      30.54035144 
S      21.47627281      28.34158414      27.16267002 
S      24.96072289      28.53106206      15.76939707 
S      26.28469969      17.43691417      12.26257777 
S      23.32306796      10.07484679      21.18436216 
S      20.14919743      10.22938506      25.24569510 
S      20.74247806      13.18840711      28.97257973 
S      18.33461104      21.50350206      31.33308120 
S      20.37724534      25.63387894      29.99428499 
S      20.96261101      31.04604929      22.91207278 
S      23.85458484      30.54911819      19.12626908 
S      24.58076494      25.64862709      11.63433028 
S      26.41868448      21.25052726      11.31547080 
S      24.11170747      12.65847457      13.12123730 
S      24.45615106      10.52893547      17.30241810 
C      31.19486664      23.22758062      25.74698367 
C      30.76346193      19.52907952      27.18879291 
C      31.76069791      16.77651889      24.28329570 
C      32.81288022      18.90838185      21.03905787 
C      32.45951060      22.77205258      21.90770125 
C      28.78589069      27.83947427      28.40268097 
C      32.11718970      27.37514161      18.29741321 
C      33.01096032      16.99526453      15.61348684 
C      30.31462507      11.19185925      24.03890671 
C      27.78794433      17.68593050      31.94406395 
C      29.59236912      26.93647128      23.65323348 
C      31.45463523      22.47326926      17.11718140 
C      30.74447505      14.65715566      19.33879908 
C      28.57210609      14.58442562      26.90870212 
C      27.35395715      22.21855194      29.70981967 
C      24.64076728      25.00238967      31.19089036 
C      27.90556240      30.05018903      21.19771532 
C      30.44134790      21.63695036      13.21172952 
C      28.72311058      11.02528780      18.55444435 
C      25.37867235      13.05173669      29.29270973 
C      24.02791966      20.36825560      32.56082642 
C      26.22880821      30.20818769      25.32030016 
C      29.68003628      26.14880470      14.41419145 
C      29.64181608      13.90053322      14.60775577 
C      26.09079825      10.32660757      25.93566611 
C      18.93428297      17.35295971      31.72464501 
C      20.57033316      29.93980330      27.05588496 
C      24.57191397      29.12879594      14.07325428 
C      25.82182205      16.44265947      10.78535466 
C      22.22337751       8.67465006      21.63779575 
C      21.42542391       8.95073065      25.57679611 
C      19.47784830      12.70739646      30.21230597 
C      19.25182839      21.13616882      32.88294646 
C      19.30664598      26.98071043      30.62026232 
C      22.00585256      32.07326573      24.02171458 
C      23.36544922      31.89083248      17.97361266 
C      26.08212457      26.66572563      11.33902502 
C      26.19170898      20.83206265       9.54190545 
C      25.71338874      12.31652950      12.29153375 
C      23.71010040       8.87693466      17.03957061 
Ag      19.06052564      20.17857279      20.02734245 
Au      16.22151594      20.17117956      19.15349653 
Ag      21.18174344      20.96063066      18.17764836 
Ag      20.91071900      18.13744127      19.06200841 
Ag      19.75877799      23.49350058      17.75379462 
Au      20.54158665      21.74714029      15.47553561 
Ag      20.22609364      18.93712372      16.30062311 
Au      19.99350574      16.09850767      17.21256416 
Ag      19.04194864      16.10589792      20.01215757 
Ag      18.19122813      16.10471251      22.85131324 
Au      17.86697779      18.87502922      23.69907187 
Au      17.65820262      21.71693496      24.58798977 
Ag      18.29420562      23.48509333      22.31075791 
Ag      19.02629484      25.19936628      20.04185307 
Ag      17.58715959      22.69460140      19.57700376 
Au      18.33807358      20.97067014      17.28043915 
Au      18.07097139      18.14111980      18.14066327 
Ag      17.14561630      18.12285056      20.96808731 
Au      16.86360981      20.95628551      21.86374156 
Au      19.99515850      14.02473583      21.89170700 
Ag      19.10891615      14.05083659      24.75024124 
Au      18.77817782      16.84470611      25.64049649 
Ag      18.57692908      19.68573414      26.50999556 
Ag      18.28021948      22.53080137      27.35236859 
Ag      18.99432614      24.30612268      25.06472917 
Au      19.75014314      26.07404820      22.79937810 
Au      15.54196709      22.51495534      26.41114309 
Au      16.09931729      24.27985880      24.17796766 
Ag      16.88193233      25.97501784      21.90817106 
Ag      17.65760322      27.72881047      19.63406964 
Au      18.31473809      26.05232939      17.30524418 
Ag      19.09463609      24.29102790      15.05788965 
Ag      19.88635670      22.52721521      12.75711045 
Ag      19.52350387      19.74218748      13.52686061 
Ag      19.29119760      16.91661923      14.47000894 
Ag      19.07653026      14.06020465      15.36142808 
Ag      18.04743269      13.99900455      18.11249125 
Ag      17.21932484      14.08793126      20.95593247 
Ag      16.39777897      14.06749218      23.82351956 
Ag      15.99290637      16.84873533      24.73184002 
Ag      15.78922648      19.61329656      25.54689507 
Au      17.31329549      18.91883857      15.29858403 
Ag      17.17956311      16.14055953      16.29655853 
Ag      16.14315784      16.06724033      19.08044166 
Ag      15.34689668      16.11247618      21.92116995 
Ag      14.90570633      18.89356215      22.81827389 
Ag      14.78155582      21.68489542      23.68798993 
Ag      15.36795249      23.48461967      21.41855395 
Ag      16.20926022      25.21508347      19.20206229 
Au      16.86321574      23.53258283      16.81282907 
Ag      17.71803548      21.79679101      14.58125376 
Au      14.74057571      22.73521252      18.66238028 
Au      15.49376807      20.95077432      16.34945594 
Ag      15.20681906      18.15711838      17.22079656 
Au      14.30180545      18.12490794      20.06907809 
Ag      13.99440303      20.96775315      20.94571607 
Ag      13.34018900      20.18922969      18.20581225 
Ag      13.35274596      15.30483919      19.68366941 
Au      12.49328653      17.34260217      22.31233094 
Ag      12.20048054      19.98521262      23.21160635 
Ag      12.51148103      23.22978047      22.08628174 
Ag      13.24541260      25.01375809      20.03008686 
Au      14.30615634      24.92778932      16.68278725 
Ag      15.04548035      23.32684932      14.48331727 
Ag      15.31936295      20.06899472      13.56135054 
Ag      15.11460429      17.34561318      14.30816786 
Ag      14.23334935      15.42334860      16.98281038 
Au      12.45126886      17.52035244      17.95434287 
Ag      11.66994228      19.34160530      20.33877772 
Au      12.00258593      22.40945894      19.33119901 
Au      12.96031867      22.31042729      16.35108236 
Ag      13.22123342      19.37672636      15.48148504 
Ag      15.33600458      13.36672099      18.79423699 
Ag      14.53236200      13.40184230      21.71082327 
Au      13.77392763      15.16127879      24.03274229 
Ag      13.35444855      17.97292452      25.03532441 
Au      13.29181195      20.80441856      25.95387991 
Ag      13.23098523      23.71776853      24.97941802 
Ag      14.05737464      25.63406854      22.74105409 
Ag      14.92758540      27.45261328      20.50009156 
Ag      15.70955938      27.40981352      17.43801205 
Ag      16.55131447      25.78346347      15.04899098 
Ag      17.39972138      24.03672033      12.78346936 
Ag      17.50432513      21.11375380      11.85169098 
Ag      17.37593026      18.15350162      12.54507349 
Ag      17.16221919      15.29211442      13.55360632 
Ag      16.20717381      13.51218237      15.87752635 
Au      16.57343217      11.66330141      25.60613724 
Ag      16.93154079      14.83757987      26.60036224 
Ag      16.71230782      17.60357306      27.51660067 
Au      16.49567887      20.41167635      28.25484232 
Au      15.40574891      23.31513395      29.34550672 
Ag      16.84957058      25.10735709      26.87590075 
Au      17.65234189      26.80899861      24.61150223 
Ag      18.31805730      28.51938976      22.35670807 
Au      18.38064241      30.63963739      19.96881732 
Ag      19.69191053      28.54087798      17.71255457 
Ag      20.50205252      26.83499149      15.47400742 
Au      21.24745055      25.06820608      13.28599708 
Au      21.52700352      23.48671502      10.40485682 
Ag      21.64881631      20.40214493      11.68723626 
Ag      21.43559294      17.68332206      12.67191129 
Ag      21.19053538      14.88659315      13.47909072 
Au      20.34369864      11.78554681      13.84173185 
Au      19.93864736      11.98733310      17.24294883 
Ag      19.06578428      11.98654800      20.00594536 
Ag      18.18320910      12.02062299      22.79746231 
Ag      11.39986405      14.53099965      17.48726966 
Au       9.56416114      18.43825033      22.79725207 
Au      10.24355914      24.97818464      20.85224363 
Ag      12.42837230      24.86438616      14.32412150 
Au      13.10701523      18.37562370      12.22365108 
Ag      12.08951042      27.60058985      21.80068763 
Au      10.66465492      18.60405836      26.12105084 
Au      12.85631983      11.84297089      19.12576148 
Au      15.72346903      16.51491367      10.78818612 
Ag      14.98726488      26.24809034      12.60610596 
Ag      14.44384652      26.53238398      25.62539315 
Ag      17.72707754      28.58460737      15.36216731 
Au      19.33265710      18.86341908      10.28408468 
Ag      17.03633666      11.05308052      17.72532895 
Ag      14.04791448      15.77342794      27.07474548 
S      11.33221277      22.72502798      14.55606228 
S      11.56150049      18.23042214      13.97972524 
S      10.16968571      16.55646538      17.92397571 
S       9.27173519      19.83369103      20.93514739 
S       9.96416882      23.75564882      18.86874802 
S      13.05461511      27.11909947      13.75044075 
S      10.31884152      26.28461131      22.80700404 
S       9.56536330      17.05568596      24.71425029 
S      12.12513157      12.29938287      16.92225338 
S      14.43757886      18.43438904      10.26974283 
S      13.05194532      26.57798259      18.02830169 
S      11.19342516      22.19083451      23.93768747 
S      11.78416283      15.05049674      21.65353415 
S      14.30203896      14.95970212      14.49407224 
S      14.96467037      22.16961928      12.23049710 
S      16.82806820      25.81795480      11.13801379 
S      13.52390011      29.40624438      21.14334558 
S      11.64630747      20.08423050      27.64995788 
S      13.53781457      11.15037428      21.26187429 
S      17.01522646      14.59721862      11.14099721 
S      18.37917584      20.88945229       9.52327568 
S      16.00506750      29.73340190      16.63651855 
S      12.71613763      25.31566307      26.81791318 
S      13.00210129      13.85981206      25.96483737 
S      16.46757909      11.10652440      15.36291933 
S      20.43170102      16.79060813      10.55411717 
S      19.50721254      28.31305923      13.74094432 
S      15.90252242      28.42612362      25.15680587 
S      14.71425512      17.16648946      28.93585587 
S      17.52405868      10.04152325      19.88582606 
S      20.62033473      10.24019735      15.59227106 
S      20.12093186      13.17472725      11.96639591 
S      22.61045708      21.53885843       9.65638101 
S      20.45479828      25.50395632      10.97597595 
S      19.81828823      30.99955321      18.13697743 
S      16.92054557      30.51823276      21.80836851 
S      16.23694714      25.51227223      29.28912595 
S      14.53242975      21.13980095      29.58709333 
S      16.75774658      12.61807865      27.75021001 
S      16.31481640      10.53934308      23.56020696 
C       9.66856242      23.02353673      15.26894691 
C      10.20576295      19.37751906      13.51541342 
C       9.23904587      17.01221432      16.41320853 
C       8.10573001      18.94800172      19.82919798 
C       8.42399769      22.78806475      19.08823173 
C      11.93698268      27.66847271      12.39104361 
C       8.83780697      27.37722169      22.71713417 
C       7.83033864      17.09623478      25.32689629 
C      10.60750249      11.27206765      16.73966955 
C      13.32079888      17.85398322       8.92614822 
C      11.39482521      26.89861182      17.30218835 
C       9.39354777      22.50545930      23.71666849 
C       9.99152142      14.99875140      21.25785868 
C      12.68518518      14.51027323      13.73488663 
C      13.37270692      22.15667571      11.30457830 
C      16.13415884      24.84660811       9.74038299 
C      12.90065895      30.04450150      19.53809539 
C      10.51500114      21.52765502      27.71324206 
C      12.01937583      11.24260970      22.29193019 
C      15.81184093      13.21412280      11.26205510 
C      17.05135635      20.41507188       8.34931207 
C      14.65853531      30.16258739      15.46307009 
C      11.13426687      26.19511830      26.50858661 
C      11.19509677      14.02839905      26.22868607 
C      14.83142779      10.29971961      15.15693792 
C      21.78674120      16.87849885       9.31309336 
C      20.41402984      29.91080558      13.85362491 
C      16.33746783      29.08326567      26.81689273 
C      15.23721479      15.95189608      30.21547525 
C      18.61616855       8.63027399      19.43328867 
C      19.37895566       8.91737117      15.32207028 
C      21.32567857      12.53226076      10.74038728 
C      21.80084089      21.09698060       8.06868117 
C      21.45226373      26.86016640      10.25331276 
C      18.88202545      32.05802889      16.96407157 
C      17.39871088      31.89724216      22.92028750 
C      14.79177076      26.60168826      29.59810000 
C      14.77813483      20.65531116      31.33591619 
C      15.15892168      12.26847228      28.58465775 
C      17.00066786       8.85655395      23.81469314 
H      31.66753672      22.26088259      25.53258372 
H      31.77599957      23.75739748      26.51000229 
H      31.14113349      23.81842134      24.82672738 
H      31.39196234      19.59417771      26.29190155 
H      31.36587262      19.17698722      28.03385974 
H      30.33433455      20.51221863      27.40850257 
H      32.26493085      17.73779208      24.12428087 
H      32.51408798      15.99011194      24.40357219 
H      31.13930443      16.84032035      25.18277500 
H      33.76138419      18.76507434      20.50976033 
H      32.39157817      17.93995223      21.33078600 
H      32.98907183      19.51135245      21.93853802 
H      33.31177595      23.45728606      21.83892487 
H      32.40846589      22.12665209      21.02380193 
H      32.55895243      22.15198535      22.80734469 
H      29.74705800      28.04894089      27.91915969 
H      28.93144493      27.15124074      29.23974514 
H      28.34000189      28.77470842      28.76098225 
H      32.04827994      28.13105997      17.50607798 
H      33.02412768      26.77673449      18.15492533 
H      32.14864034      27.86761948      19.27322498 
H      33.05327967      16.58286276      14.59872143 
H      33.60902218      16.36929316      16.28583629 
H      33.41303796      18.01235083      15.61014403 
H      30.03171139      10.13397294      24.08644129 
H      30.82235451      11.47679350      24.96811054 
H      30.98336102      11.35616424      23.18940673 
H      28.54330968      18.44080124      32.19021203 
H      28.27851209      16.76424019      31.61934448 
H      27.16952901      17.48304863      32.82657903 
H      30.14223228      27.64504998      23.02244760 
H      30.15076680      25.99703933      23.71860739 
H      29.44799437      27.35824525      24.65435536 
H      31.94996060      21.97821182      16.27369287 
H      31.82393600      22.05626989      18.06066280 
H      31.63404199      23.55384883      17.08479292 
H      31.21777114      14.90306093      18.38120839 
H      30.90849234      13.60235108      19.58827864 
H      31.14707957      15.29150301      20.13645074 
H      28.90340733      13.66406038      26.41399190 
H      28.58822695      14.45411765      27.99730674 
H      29.22460015      15.41963986      26.63265953 
H      27.39169943      23.19915948      30.19779432 
H      28.25352894      22.07390936      29.10168471 
H      27.27122470      21.41990050      30.45529477 
H      23.78281887      24.62387933      31.76101234 
H      25.22349471      25.69144577      31.81153090 
H      25.25860316      24.15549784      30.87553197 
H      28.75833846      30.69154327      20.94737498 
H      28.20640887      29.27273539      21.90887724 
H      27.10144246      30.65231656      21.63892449 
H      31.41147385      21.35437334      12.78857692 
H      30.57333855      22.05305415      14.21635039 
H      29.96623416      22.39329499      12.57459854 
H      28.38126985      10.82109025      17.53188115 
H      29.42421359      10.24581746      18.87174840 
H      29.20709112      12.00738380      18.58183746 
H      24.80478941      12.19449057      28.91923213 
H      25.88675818      12.78583086      30.22663742 
H      26.10760940      13.35420962      28.53220681 
H      24.58505592      21.24897060      32.90272010 
H      24.71245720      19.69314372      32.03644223 
H      23.59213056      19.85645547      33.42612859 
H      27.07892030      30.55899488      24.72284528 
H      26.54934835      29.36275983      25.93783740 
H      25.87197073      31.02254492      25.96098973 
H      29.68204730      27.11834689      13.90337006 
H      30.46033234      25.50942569      13.98391859 
H      29.88111038      26.29161029      15.48133105 
H      29.82247694      13.75568153      13.53714093 
H      30.06338519      13.05583093      15.16668253 
H      30.10885517      14.83107057      14.94952284 
H      26.00084822       9.25059469      25.74836492 
H      26.40742702      10.49004591      26.97286514 
H      26.83569963      10.76005244      25.25923911 
H      18.17228454      16.56832362      31.64789034 
H      18.48030727      18.32650846      31.50700794 
H      19.35537049      17.35567748      32.73693121 
H      19.65840648      29.85111519      27.65858822 
H      20.29901711      30.18415260      26.02269599 
H      21.20214725      30.73399945      27.47007611 
H      25.47455531      29.57719962      13.64234878 
H      23.79158482      29.89491036      14.15514438 
H      24.21795590      28.31724475      13.42737690 
H      25.34091068      17.12390224      10.07262298 
H      25.12783872      15.63597008      11.04413601 
H      26.73045171      16.02522379      10.33719453 
H      21.74456264       8.30270269      20.72405353 
H      21.45280505       8.98609708      22.35087325 
H      22.83872520       7.88039895      22.07702650 
H      21.50921477       8.30329341      24.69637502 
H      21.08222810       8.35874593      26.43350353 
H      22.39802485       9.40529098      25.79625406 
H      19.81569118      11.79361136      30.71486325 
H      18.50118368      12.53497164      29.74713551 
H      19.40780397      13.52269695      30.94234302 
H      18.94408294      20.14549787      33.23791968 
H      18.97608119      21.88929887      33.62979119 
H      20.33527373      21.14633010      32.72078798 
H      19.61409340      27.90663302      30.11921546 
H      19.47412671      27.07454606      31.69998747 
H      18.24865822      26.77433948      30.42396214 
H      22.09471475      33.07145953      23.57816025 
H      22.99960387      31.63073583      24.15269904 
H      21.50598844      32.15152577      24.99423181 
H      23.83567927      31.67805061      17.00599279 
H      23.74769130      32.84074602      18.36497241 
H      22.27761924      31.94773254      17.85803376 
H      26.38925860      26.53178048      10.29569340 
H      26.89653738      26.37555934      12.01222530 
H      25.82233021      27.71724631      11.50883845 
H      26.86634898      21.45730922       8.94577968 
H      25.15686532      20.99157108       9.21960419 
H      26.46773904      19.77840062       9.41397409 
H      25.73499154      12.89449510      11.35985405 
H      25.76167651      11.24675566      12.05907722 
H      26.55745463      12.60721145      12.92589534 
H      24.40060405       8.27774913      16.43462579 
H      22.73907653       8.95566767      16.53818356 
H      23.59406453       8.42079330      18.03038652 
H       9.04132012      23.49046574      14.50065623 
H       9.72175821      23.66714570      16.15307125 
H       9.23966373      22.05410879      15.55073001 
H       9.74396261      19.03373265      12.58374670 
H      10.57266389      20.40414655      13.41016484 
H       9.46491906      19.33917192      14.32389360 
H       8.37003181      16.34885058      16.33126632 
H       9.86336438      16.92682562      15.51785081 
H       8.89759515      18.04875366      16.52314578 
H       7.96660634      19.57717782      18.94098187 
H       7.14498801      18.82428205      20.34045736 
H       8.50680137      17.97621578      19.52258367 
H       8.32372020      22.13648934      18.21129510 
H       7.57688745      23.48205520      19.12781484 
H       8.46339042      22.17683171      19.99589316 
H      12.36083008      28.57194657      11.93736460 
H      10.95747831      27.90467118      12.82291772 
H      11.81937208      26.89710133      11.62482459 
H       7.94314007      26.77226846      22.90309015 
H       8.75747183      27.86697482      21.74276452 
H       8.93862618      28.13554889      23.50275478 
H       7.21394941      16.52007329      24.62709864 
H       7.45345482      18.12020847      25.39703510 
H       7.80985453      16.62149309      26.31482395 
H      10.13812119      11.53649091      15.78471895 
H       9.90154143      11.44648561      17.55634346 
H      10.90160218      10.21628334      16.72385501 
H      13.93121893      17.68803268       8.03073713 
H      12.58602433      18.64388639       8.73206461 
H      12.80845401      16.92891310       9.20441047 
H      11.53229749      27.32666827      16.30228773 
H      10.87501083      27.61094881      17.95443713 
H      10.82015885      25.96798703      17.24612490 
H       9.22307969      23.58689900      23.76213278 
H       8.85309122      21.99869381      24.52467676 
H       9.06243689      22.11043571      22.75032562 
H       9.77147203      14.02326683      20.80675919 
H       9.71917673      15.79552517      20.55865326 
H       9.43340930      15.11496718      22.19424030 
H      12.81542542      14.44189121      12.64857928 
H      11.94163901      15.28075569      13.96613761 
H      12.37159941      13.54284287      14.14315116 
H      13.41865650      21.36221942      10.55116750 
H      13.24343664      23.13110046      10.81880424 
H      12.54083506      21.97365547      11.99319475 
H      15.48211511      25.48904475       9.13852871 
H      15.57905710      23.97211031      10.09796487 
H      16.97989028      24.50702091       9.12957673 
H      13.67483837      30.70717101      19.13155233 
H      11.97884830      30.61156507      19.70762206 
H      12.72136052      29.23234404      18.82505574 
H      11.03230970      22.30570352      28.28875911 
H       9.59101492      21.23398060      28.22342662 
H      10.30077008      21.90458263      26.70751682 
H      11.31345075      10.46996020      21.96913741 
H      11.55823003      12.23515629      22.23357449 
H      12.33309660      11.05101899      23.32583015 
H      15.35099470      13.04229770      10.28351822 
H      15.04512710      13.41307085      12.01828730 
H      16.38990196      12.33039601      11.56083252 
H      17.49584899      19.92635626       7.47548829 
H      16.55518692      21.34249939       8.03744375 
H      16.31909196      19.75253937       8.82270939 
H      15.01914310      30.93407106      14.77348748 
H      13.82222460      30.56187228      16.04961229 
H      14.31542143      29.28932517      14.89743547 
H      10.32937215      25.59914118      26.95574896 
H      10.94018267      26.31104354      25.43706083 
H      11.16681996      27.17923240      26.98927205 
H      10.68434437      13.36333305      25.52222888 
H      10.85633542      15.05574366      26.06403414 
H      10.96659106      13.71978594      27.25555550 
H      14.52593122      10.42594287      14.11121623 
H      14.07512621      10.74893689      15.80939284 
H      14.92925773       9.23138611      15.38022065 
H      21.35591056      16.82371720       8.30706376 
H      22.43830720      16.01203124       9.48062131 
H      22.37086676      17.79874645       9.42011655 
H      19.79231396      30.70417171      13.42313858 
H      21.33716976      29.81579612      13.26923467 
H      20.66771438      30.16132074      14.88933431 
H      17.14992905      29.80930148      26.69392490 
H      16.66029078      28.28489765      27.49403874 
H      15.45479618      29.58696244      27.22851376 
H      14.35790098      15.40149851      30.56921276 
H      15.67326671      16.51239540      31.05128782 
H      15.98163533      15.24863682      29.82652579 
H      18.01630083       7.86200419      18.93201384 
H      19.03674786       8.21664895      20.35775378 
H      19.43346075       8.94841049      18.77733251 
H      19.68989206       8.33530133      14.44690846 
H      18.37978099       9.33907004      15.16703434 
H      19.37973386       8.27353514      16.20972412 
H      21.36494481      13.26350965       9.92360822 
H      20.96344551      11.57337544      10.35304591 
H      22.31881345      12.40810867      11.18617074 
H      22.08824447      21.83725776       7.31378226 
H      20.71157177      21.06578673       8.17873052 
H      22.17157204      20.10850139       7.77210786 
H      21.28025158      26.87462720       9.17089125 
H      22.51871760      26.73044130      10.47053618 
H      21.07928682      27.78973940      10.70079351 
H      19.47405036      32.14105774      16.04488397 
H      18.76567333      33.05011490      17.41438336 
H      17.90135459      31.62447767      16.73905753 
H      17.04845795      32.83913384      22.48332389 
H      18.48303588      31.93031284      23.07553923 
H      16.88606362      31.72118739      23.87393443 
H      15.12421411      27.63835008      29.46680386 
H      14.46225194      26.45327587      30.63239693 
H      13.97432321      26.38065194      28.90254261 
H      14.57600403      19.57849921      31.39290912 
H      14.05456796      21.20149139      31.95209510 
H      15.80063897      20.87036257      31.66684290 
H      15.09994778      11.19218701      28.78125660 
H      14.31297070      12.58815459      27.96670224 
H      15.15346774      12.81474991      29.53530128 
H      17.07739108       8.40057882      22.81982780 
H      16.30528631       8.27848537      24.43343663 
H      17.98748479       8.89716573      24.28857383 
