646
Properties=species:S:1:pos:R:3 i=93 optimized=T E=-10428.287414418 pbc="F F F" jobid=246_80-Ag-89_8-000004-PBE
Ag      21.85619551      20.15931187      20.93483482 
Ag      24.67349119      20.18096704      21.85510442 
Au      20.44720398      22.67087659      20.48941964 
Ag      19.70923452      20.93678991      22.76129047 
Ag      20.00145074      18.13073594      21.88259454 
Ag      21.11726579      23.48434228      23.20403543 
Ag      20.35318492      21.73122839      25.47005051 
Ag      20.67459016      18.93069241      24.63418676 
Ag      20.94029603      16.14102884      23.70853117 
Ag      21.88280455      16.08380684      20.96635008 
Au      22.74187276      16.11683328      18.14651880 
Ag      23.05924656      18.88822079      17.24884350 
Ag      23.30411995      21.69579379      16.37255452 
Au      22.61916366      23.44813827      18.62294618 
Ag      21.83586575      25.17947424      20.90582134 
Ag      23.30689805      22.68104301      21.39372064 
Ag      22.56150809      20.97034162      23.66756781 
Ag      22.85628479      18.16038082      22.82318773 
Ag      23.76028519      18.14150911      20.02934315 
Ag      24.03879210      20.92246969      19.12690840 
Ag      20.93092829      13.97544954      19.03601811 
Ag      21.86129462      14.01589217      16.25200157 
Ag      22.15501405      16.83020549      15.36067417 
Ag      22.38947813      19.68856926      14.46418829 
Ag      22.66963766      22.51237611      13.59807119 
Ag      21.96397267      24.25867754      15.88070260 
Ag      21.18103364      26.03933552      18.17767299 
Ag      20.44910957      27.73956591      20.45919079 
Ag      25.40188655      22.46388043      14.56273230 
Ag      24.78987332      24.24417115      16.77615457 
Ag      23.99582341      25.94931225      19.06971000 
Ag      23.16179887      27.68726083      21.32241722 
Ag      22.49004062      26.03414259      23.65255151 
Ag      21.74811293      24.28363268      25.88966151 
Ag      20.98657983      22.55708799      28.19849047 
Ag      21.34045061      19.73759191      27.42618450 
Ag      21.58578955      16.94923693      26.49475247 
Au      21.86345509      14.15058826      25.58346038 
Ag      22.86953052      14.00479374      22.85617537 
Ag      23.71181020      14.05456474      20.04440420 
Ag      24.57143162      14.07110073      17.20626381 
Ag      24.96078884      16.80395683      16.27935584 
Ag      25.16969848      19.62977672      15.44773728 
Ag      23.53922386      18.95583844      25.60523303 
Ag      23.73061680      16.16585042      24.68952258 
Ag      24.75070470      16.06015745      21.92808698 
Ag      25.53615416      16.08668106      19.08432091 
Ag      25.94956978      18.86651656      18.18013337 
Ag      26.10471114      21.65935486      17.28635820 
Ag      25.49300512      23.47074482      19.56155980 
Ag      24.65709932      25.18423888      21.80363044 
Ag      24.00851979      23.50910984      24.14228520 
Ag      23.14426383      21.78862605      26.35119932 
Ag      26.16230243      22.70962062      22.29909867 
Ag      25.39590115      20.97368474      24.60383043 
Ag      25.67649343      18.14320698      23.76277357 
Ag      26.59384444      18.11831105      20.93610345 
Ag      26.87581246      20.93030001      20.03343363 
Au      27.53032430      20.16764213      22.76916864 
Ag      27.49971761      15.32488264      21.28887500 
Ag      28.34934100      17.33962024      18.74703712 
Ag      28.61389902      19.98574830      17.80028330 
Ag      28.28288626      23.19499820      18.88435237 
Ag      27.61761426      24.95409762      20.98688027 
Au      26.58655532      24.89026428      24.23535977 
Ag      25.84290447      23.32541291      26.41892047 
Ag      25.57891258      20.04232692      27.34919713 
Ag      25.75887603      17.32923183      26.63505905 
Ag      26.67235893      15.41535601      23.98144321 
Ag      28.49444564      17.50052075      23.04267829 
Ag      29.25415442      19.36986514      20.63510851 
Ag      28.95165950      22.33197625      21.58875077 
Ag      27.96026960      22.32974919      24.57772463 
Ag      27.68785108      19.31320329      25.47875336 
Ag      25.57411635      13.33189518      22.23824362 
Ag      26.36304317      13.32521582      19.35515565 
Ag      27.30248788      15.13477594      17.05179218 
Ag      27.54590509      17.96162362      15.99622821 
Ag      27.72339399      20.79513441      15.04204093 
Ag      27.59959941      23.74066466      16.04326030 
Ag      26.79793330      25.64577543      18.26294180 
Ag      25.94399441      27.43123356      20.55301339 
Au      25.01480493      27.39616537      23.48046340 
Ag      24.31623703      25.77383061      25.85861061 
Ag      23.46692000      24.04425152      28.12400539 
Ag      23.37420265      21.07607807      29.08803935 
Ag      23.54416160      18.16530216      28.33742070 
Ag      23.67211059      15.29524137      27.48649946 
Ag      24.67621892      13.48651781      25.14569583 
Ag      24.25332288      11.72997773      15.32372507 
Ag      24.03130877      14.79591986      14.39930967 
Ag      24.22165479      17.62332294      13.54010085 
Ag      24.52706796      20.42360996      12.69836688 
Ag      25.32398344      23.34927423      11.65805575 
Ag      24.10041285      25.04253275      14.07301104 
Ag      23.29755958      26.75822562      16.31141489 
Ag      22.60755800      28.47967885      18.59764094 
Ag      22.38179639      30.58245148      20.94338310 
Ag      21.11541969      28.56468026      23.21869255 
Ag      20.33716378      26.81702351      25.44875142 
Ag      19.61848421      25.10147642      27.71187871 
Au      19.46422834      23.65896173      30.54050454 
Au      19.15959033      20.47603062      29.17350166 
Ag      19.42644513      17.67831076      28.32888002 
Ag      19.75520048      14.86449789      27.49122695 
Ag      20.49957998      11.81471577      26.96423851 
Ag      21.00500293      11.98220033      23.80736396 
Ag      21.85927144      11.98888854      20.98207547 
Ag      22.78508472      11.98097049      18.18107157 
Ag      29.49153638      14.47182013      23.33183581 
Ag      31.12594042      18.39421290      18.12999489 
Ag      30.52059718      24.77405148      20.21780731 
Ag      28.51213851      24.66235531      26.62517288 
Ag      27.88552908      18.35801022      28.46370912 
Ag      28.84950154      27.51995188      19.19086428 
Ag      30.17847157      18.66434443      14.91822735 
Au      27.99195314      11.72486822      21.87709607 
Ag      25.44707097      16.61802448      29.95223439 
Ag      25.96951271      26.15869590      28.28862009 
Ag      26.44150120      26.53887163      15.38135399 
Ag      23.06499527      28.58942091      25.60971006 
Ag      21.50708569      18.88747164      30.45558021 
Ag      23.88655825      11.02214977      23.25823588 
Ag      26.89557226      15.75913324      14.02112441 
S      29.57153873      22.49739715      26.49066285 
S      29.48664375      18.04525778      26.68986344 
S      30.75268981      16.43574022      22.74218878 
S      31.62614693      19.84795497      19.97675321 
S      30.97012150      23.63255974      22.28344290 
S      27.95826012      26.94293881      27.17766093 
S      30.56122769      26.12367033      18.22253493 
S      31.21127095      16.92301118      16.22268929 
S      28.77706843      12.27020541      24.04064601 
S      26.75937256      18.53740401      30.58595596 
S      27.94222986      26.52569331      22.95073862 
S      29.64318549      22.18064718      17.03040269 
S      28.93842284      14.93102108      19.21931834 
S      26.59948516      14.93409904      26.43995497 
S      25.86809121      22.16434566      28.65781413 
S      24.07546252      25.85324957      29.72009721 
S      27.39950701      29.31380553      19.83698746 
S      29.36160681      20.18917728      13.26765815 
S      27.22580916      11.00325171      19.78121693 
S      24.08887344      14.65341257      29.85413682 
S      22.56194729      20.85319363      31.41771210 
S      24.90181720      29.66252170      24.40126066 
S      28.11875569      25.27171809      14.15565074 
S      27.80981276      13.75568925      15.05025044 
S      24.41633801      11.06182135      25.62057454 
S      20.30849703      16.77114296      30.45885552 
S      21.22274274      28.38073418      27.16696281 
S      25.06091926      28.45646965      15.91666444 
S      26.27636007      17.24410264      12.20915105 
S      23.33935515      10.01330676      21.11698567 
S      20.20311675      10.13007952      25.26527568 
S      20.86418882      13.14865488      28.92777150 
S      18.37865726      21.67590916      31.19965120 
S      20.47035472      25.70900397      30.00135385 
S      21.01294109      31.03844544      22.86208177 
S      23.95820205      30.49697996      19.13911767 
S      24.54317855      25.62678535      11.68734158 
S      26.43947797      21.24824668      11.33657094 
S      24.16461885      12.65293365      13.10832010 
S      24.60488755      10.49913421      17.34909707 
C      31.27529651      22.80321081      25.87604252 
C      30.89796133      19.14451392      27.10494955 
C      31.84536589      16.77782565      24.17771375 
C      32.81449223      18.93275787      21.03593992 
C      32.51662822      22.67427983      22.04985264 
C      29.07059482      27.42431758      28.56706863 
C      32.08902991      27.15221296      18.32738269 
C      32.96736430      16.91239865      15.65853578 
C      30.30459458      11.25875531      24.22876870 
C      27.93209111      17.89049928      31.85387741 
C      29.62513610      26.70422313      23.66359969 
C      31.45039721      22.48260143      17.21170853 
C      30.75268039      14.63609680      19.34102431 
C      28.24410744      14.46241203      27.12014381 
C      27.41862682      22.20121108      29.65097078 
C      24.67660900      24.88724034      31.16424550 
C      28.05074240      29.96090557      21.42820567 
C      30.49080461      21.63899601      13.28490969 
C      28.71380365      10.98643184      18.70371990 
C      25.23076378      13.22864757      29.64452095 
C      23.92053442      20.27568973      32.51000134 
C      26.25997884      29.95898240      25.59766267 
C      29.73508168      26.09407640      14.45003051 
C      29.62141401      13.75816237      14.74571686 
C      26.04830452      10.24048607      25.80661916 
C      18.96781035      17.07507158      31.68338432 
C      20.29856331      29.95654112      26.94338453 
C      24.66409055      29.16274805      14.26343764 
C      25.77655581      16.08003447      10.87332285 
C      22.24164928       8.61752963      21.60334055 
C      21.44111785       8.81954722      25.62134243 
C      19.67429056      12.59145532      30.20884719 
C      19.16713711      21.13172630      32.76400723 
C      19.36884181      27.00122815      30.69634542 
C      22.05818397      32.06911107      23.96940998 
C      23.51332567      31.82527212      17.95330107 
C      26.03372415      26.66435332      11.40250129 
C      26.17951197      20.75664554       9.58719295 
C      25.78798980      12.25180087      12.34564630 
C      23.90777366       8.82034917      17.09051149 
Ag      19.05498674      20.14967045      20.01635940 
Ag      16.22934239      20.13414606      19.09969910 
Ag      21.18947844      20.92786475      18.17713060 
Ag      20.90861169      18.13274113      19.06665747 
Au      19.76029480      23.46224071      17.74102177 
Ag      20.52654120      21.70932035      15.46129149 
Ag      20.22109222      18.91815244      16.30711812 
Ag      19.97413447      16.11546610      17.21499343 
Ag      19.05758824      16.07269486      19.99581824 
Ag      18.18049448      16.08759779      22.80117885 
Ag      17.85083910      18.86308082      23.71055945 
Ag      17.58705513      21.68839514      24.56256870 
Ag      18.27477692      23.43820054      22.31774363 
Ag      19.05047159      25.16004171      20.04568682 
Ag      17.58824042      22.64922762      19.56505793 
Ag      18.32767437      20.93021942      17.28239675 
Ag      18.05879841      18.12897303      18.13177335 
Ag      17.16865519      18.11674234      20.94817251 
Ag      16.86410481      20.89546149      21.82184801 
Au      20.05003367      13.97127144      21.88542772 
Au      19.10221228      14.05958682      24.72352496 
Ag      18.77515478      16.82896121      25.61435553 
Au      18.50281911      19.65823250      26.49805268 
Ag      18.21778067      22.52265242      27.31122384 
Ag      18.93060453      24.28536576      25.05243429 
Ag      19.71100016      26.03127239      22.77873953 
Ag      15.46835704      22.46514480      26.38652032 
Ag      16.10351006      24.23734079      24.17653037 
Ag      16.89052720      25.92628783      21.88631199 
Ag      17.71935227      27.67498594      19.61026820 
Ag      18.37617233      26.01788095      17.30057385 
Ag      19.11019154      24.24913381      15.04586534 
Ag      19.89450828      22.50530922      12.76011038 
Ag      19.53881543      19.70091855      13.51979838 
Ag      19.32778497      16.90842892      14.45622483 
Ag      19.13505709      14.07246918      15.35203221 
Ag      18.16198891      14.00025488      18.10712692 
Ag      17.26076762      14.02350190      20.90723287 
Ag      16.38149128      14.04640096      23.76010996 
Ag      15.96392607      16.77288502      24.66407586 
Ag      15.73500018      19.61602751      25.50378707 
Ag      17.33541529      18.90732181      15.35290020 
Ag      17.18803296      16.14304845      16.25912638 
Ag      16.18830549      16.07099165      19.02513169 
Ag      15.40724817      16.04973588      21.86685342 
Ag      14.96528047      18.82896830      22.77716186 
Ag      14.79855515      21.63840898      23.66032597 
Ag      15.40376818      23.44516475      21.39406955 
Ag      16.24150705      25.14871244      19.16072245 
Ag      16.88774220      23.47896437      16.81580233 
Ag      17.73032927      21.73748907      14.59491226 
Ag      14.75061635      22.64887015      18.65520380 
Ag      15.49465542      20.92860809      16.34936329 
Ag      15.20105966      18.10334401      17.17493125 
Ag      14.32007286      18.07856784      20.02260707 
Ag      14.02307677      20.88465648      20.91067132 
Ag      13.38671344      20.12943364      18.18955824 
Ag      13.43390981      15.25562131      19.64909880 
Ag      12.56280416      17.31769770      22.22194672 
Ag      12.30116515      19.95584926      23.15932482 
Ag      12.60254126      23.15203672      22.05222621 
Ag      13.28411489      24.90150452      19.94435550 
Ag      14.31817155      24.86811041      16.78703173 
Ag      15.07603983      23.27709836      14.56808268 
Ag      15.28853130      19.94010207      13.59096573 
Ag      15.02398582      17.22152529      14.30707963 
Ag      14.25282329      15.34908386      16.92330948 
Ag      12.46801800      17.44645422      17.91998266 
Ag      11.66452174      19.33085678      20.31356744 
Ag      11.96195939      22.29138811      19.35359546 
Ag      12.95370060      22.30041345      16.39133354 
Ag      13.20432335      19.30659521      15.49191502 
Au      15.42595176      13.34750351      18.70954822 
Ag      14.63264027      13.26395014      21.58394632 
Ag      13.64823795      15.10003252      23.90106228 
Ag      13.38067783      17.93000463      24.97103694 
Ag      13.18221030      20.76660134      25.91286780 
Ag      13.26696703      23.70276417      24.88561710 
Ag      14.08323283      25.60882379      22.68254678 
Ag      14.92183950      27.38913772      20.38662615 
Au      15.83797075      27.36736347      17.48572859 
Ag      16.53742830      25.73898102      15.10115572 
Ag      17.39601769      24.00047390      12.81729247 
Ag      17.49036258      20.99470359      11.86624578 
Ag      17.33052274      18.07472975      12.65204055 
Au      17.19396656      15.23225732      13.57412485 
Au      16.38401835      13.47859854      15.88180262 
Ag      16.81189834      11.69225065      25.63093555 
Ag      16.93562367      14.77107041      26.54549907 
Ag      16.67938576      17.57967743      27.39834573 
Ag      16.36322252      20.40796330      28.23973761 
Ag      15.48718639      23.26264554      29.31006988 
Au      16.80850497      25.02419360      26.86476395 
Ag      17.56049941      26.77218236      24.62657855 
Au      18.30657251      28.42307560      22.32560587 
Ag      18.58487304      30.57112150      20.02046228 
Ag      19.78549044      28.54339573      17.69354929 
Au      20.56068838      26.78481163      15.50595493 
Ag      21.26397013      25.07590640      13.24251219 
Au      21.51142840      23.47338369      10.43052678 
Ag      21.72677226      20.41692013      11.75124660 
Au      21.50783443      17.67079019      12.65332953 
Au      21.22271216      14.87595812      13.53921051 
Ag      20.60859674      11.82335949      13.93560444 
Ag      19.98926492      11.94954308      17.17845841 
Ag      19.14623260      11.96189344      19.99156013 
Ag      18.22219990      11.99118980      22.80886207 
Ag      11.33195985      14.48714160      17.67040637 
Ag       9.77699710      18.40471296      22.79115637 
Ag      10.38937525      24.76418437      20.71943781 
Ag      12.47402111      24.73896860      14.33389184 
Au      12.93302512      18.32719706      12.33865674 
Ag      12.04465411      27.52173609      21.82991998 
Ag      10.73607329      18.67191153      25.99791552 
Ag      12.89596572      11.92597855      19.26711168 
Ag      15.45048732      16.38902099      11.16564476 
Ag      14.98207277      26.17444123      12.63621155 
Ag      14.44726599      26.51620235      25.58593379 
Ag      17.73754788      28.54013308      15.33570111 
Ag      19.31311128      18.94999431      10.48030262 
Ag      17.05862226      11.00880866      17.68687295 
Ag      14.05684393      15.73140682      26.96676045 
S      11.37750749      22.60635719      14.47035959 
S      11.39597172      18.22601889      14.11510906 
S      10.15815097      16.52373400      18.19007012 
S       9.29531901      19.87008994      20.94717297 
S       9.96867522      23.62876608      18.64221786 
S      13.06831439      27.01595043      13.83360730 
S      10.31376256      26.10270015      22.72238531 
S       9.70321660      16.92818931      24.69440473 
S      11.94738566      12.24353115      17.06699970 
S      14.25145906      18.34133869      10.38117842 
S      12.97129948      26.55986435      18.05231727 
S      11.23795340      22.14392169      23.90799477 
S      11.98512063      14.93472285      21.72287638 
S      13.97568844      14.90795285      14.48658579 
S      15.02344571      22.09638237      12.31843675 
S      16.83183189      25.78490029      11.17122763 
S      13.54173225      29.28674153      21.21746781 
S      11.51893647      20.18944278      27.67457652 
S      13.56462200      11.02624877      21.39338801 
S      16.71223794      14.34806445      11.33148798 
S      18.28638217      20.92831507       9.50777494 
S      15.99992029      29.66912224      16.61806937 
S      12.75425404      25.22960031      26.77050291 
S      13.11577913      13.75370879      25.91892408 
S      16.44237290      11.09467461      15.31571945 
S      20.62377250      16.90559105      10.47991723 
S      19.52915538      28.18377071      13.74600929 
S      15.79428191      28.47024779      25.08650269 
S      14.69250620      17.17366232      28.81304963 
S      17.72614659       9.94949977      19.76469643 
S      20.77885843      10.14281093      15.64704381 
S      20.21213238      13.22855099      12.01150158 
S      22.59685525      21.52506531       9.67289691 
S      20.43548323      25.50477797      10.91370665 
S      19.94379213      31.00274988      18.08868197 
S      17.00499018      30.45212306      21.83639523 
S      16.29728420      25.52831389      29.24737549 
S      14.46017153      21.12401693      29.65269745 
S      16.86866269      12.63940216      27.84650002 
S      16.43157190      10.47703349      23.59125693 
C       9.67136172      22.96059560      15.05073829 
C      10.04132899      19.37659112      13.66820638 
C       9.11453554      16.90195217      16.72628999 
C       8.08371638      18.97672479      19.89585509 
C       8.40075766      22.69828135      18.84705297 
C      11.91554007      27.55528848      12.49862850 
C       8.78433664      27.12656715      22.59943936 
C       7.95054293      16.91300554      25.26925612 
C      10.37802392      11.27687688      17.11484335 
C      13.13839849      17.69710653       9.06086292 
C      11.28846130      26.82991633      17.35937582 
C       9.43302207      22.46180677      23.72944536 
C      10.16986550      14.65883641      21.58402379 
C      12.20877336      14.68240681      14.03569820 
C      13.50164461      22.12532600      11.28231949 
C      16.19362693      24.80473460       9.75335030 
C      12.87534684      29.98247500      19.65256441 
C      10.39387648      21.64194864      27.63311859 
C      12.11707386      11.16468912      22.51518937 
C      15.50824843      13.00603927      11.67037043 
C      16.92392502      20.33916742       8.42491992 
C      14.61504369      30.04583410      15.47642805 
C      11.13317754      26.04306191      26.48083835 
C      11.30585781      13.78004960      26.23212168 
C      14.72812997      10.45629558      15.19229517 
C      21.96442795      17.26161906       9.27381768 
C      20.47962204      29.75626572      13.81894023 
C      16.18222717      29.11863402      26.76437630 
C      15.23361681      15.97053654      30.09697611 
C      18.84333917       8.59101385      19.22392661 
C      19.50678637       8.87988691      15.23502672 
C      21.44254567      12.82129469      10.71735377 
C      21.74881410      21.08281543       8.10406299 
C      21.45608967      26.81065457      10.12648367 
C      18.91278898      32.03463273      16.96852855 
C      17.43942151      31.72109580      23.08402657 
C      14.83079030      26.60284094      29.50631231 
C      14.83742470      20.62567122      31.37886479 
C      15.24320899      12.23047428      28.60120718 
C      17.15012270       8.80038826      23.79411409 
H      31.74261892      21.83033367      25.68012436 
H      31.84552385      23.32904440      26.64995349 
H      31.26448834      23.39006106      24.95120621 
H      31.57595714      19.16517742      26.24299965 
H      31.42759385      18.73454851      27.97215430 
H      30.55243421      20.16178677      27.31930736 
H      32.32277694      17.75167183      24.01361588 
H      32.61711496      16.00203265      24.23384334 
H      31.27078961      16.80774489      25.10988163 
H      33.76495859      18.82933889      20.50080934 
H      32.42203922      17.94626598      21.30572004 
H      32.97488277      19.52133928      21.94764208 
H      33.35671898      23.37182062      21.95958443 
H      32.45724668      22.03471487      21.16233262 
H      32.65966897      22.04831195      22.93929453 
H      30.06700964      27.62412392      28.15600710 
H      29.14203172      26.63786580      29.32367336 
H      28.67773601      28.33866397      29.02668932 
H      32.01306578      27.95922030      17.58937922 
H      32.94998886      26.51815629      18.08589601 
H      32.22134468      27.58162911      19.32446590 
H      33.00475655      16.48317271      14.65056152 
H      33.54630181      16.28235995      16.34371675 
H      33.39384579      17.91933028      15.64196810 
H      30.01775871      10.20313654      24.29795335 
H      30.79574267      11.56679351      25.15943910 
H      30.98901657      11.40160128      23.38792299 
H      28.69049278      18.65835339      32.04574597 
H      28.42170554      16.97035213      31.52278139 
H      27.37153788      17.69470894      32.77540227 
H      30.20524061      27.35455589      22.99725200 
H      30.12463906      25.73371918      23.74823041 
H      29.52241534      27.16936772      24.65137603 
H      31.96813528      22.00716605      16.37036785 
H      31.80418924      22.05012809      18.15435968 
H      31.61851584      23.56568099      17.20052255 
H      31.20872444      14.90498928      18.38124240 
H      30.91842046      13.57493069      19.56003909 
H      31.16975930      15.24966457      20.14764406 
H      28.54242391      13.51027162      26.66724664 
H      28.14890082      14.35291731      28.20694393 
H      28.97847240      15.24259663      26.89061225 
H      27.48844933      23.17550883      30.14876600 
H      28.28399606      22.05753136      28.99436668 
H      27.36533608      21.39505259      30.39167199 
H      23.79411943      24.59391237      31.74617060 
H      25.32926520      25.51846432      31.77715905 
H      25.21041825      23.98374331      30.85008495 
H      28.97391496      30.51930872      21.23846254 
H      28.23613163      29.15143342      22.14351982 
H      27.28946808      30.63435387      21.84101474 
H      31.45878258      21.35066142      12.86075162 
H      30.62361926      22.03396326      14.29788089 
H      30.02948592      22.41377137      12.65992826 
H      28.35577050      10.77196227      17.68873260 
H      29.39496335      10.19393486      19.03153693 
H      29.22388392      11.95551217      18.70728170 
H      24.61091220      12.34913625      29.43040893 
H      25.78830931      13.06976483      30.57401072 
H      25.92317707      13.38641481      28.81038896 
H      24.44807943      21.16326999      32.87984800 
H      24.62857280      19.63533910      31.97256772 
H      23.49200625      19.72856329      33.35703824 
H      27.14447111      30.27157790      25.02973942 
H      26.50208910      29.05865458      26.17219013 
H      25.95463344      30.76506844      26.27486760 
H      29.73919141      27.06909090      13.95002990 
H      30.51575458      25.45880370      14.01432673 
H      29.93107125      26.22265062      15.52050801 
H      29.80524911      13.57648482      13.68081660 
H      30.05993133      12.94361937      15.33473235 
H      30.07914932      14.70733358      15.04648738 
H      25.94967504       9.18033210      25.54812156 
H      26.34726215      10.33237119      26.85782934 
H      26.80953418      10.70887527      25.17340491 
H      18.26741078      16.23274400      31.63301923 
H      18.42986477      18.00537090      31.47277400 
H      19.40797204      17.12093083      32.68617702 
H      19.35525332      29.87362425      27.49627641 
H      20.08285695      30.15602773      25.88743202 
H      20.89233658      30.77729775      27.36180687 
H      25.56730856      29.62830867      13.85256360 
H      23.89142392      29.92866265      14.40088640 
H      24.29623995      28.39621301      13.57228527 
H      25.29985018      16.66463259      10.07739987 
H      25.07416887      15.32209898      11.23758903 
H      26.67450422      15.59232581      10.47682887 
H      21.79967515       8.20151585      20.69019333 
H      21.44239637       8.94493583      22.27743135 
H      22.84829533       7.84870732      22.09548931 
H      21.46672197       8.12855515      24.77049480 
H      21.11828437       8.27852591      26.51804643 
H      22.43712173       9.24794344      25.77889117 
H      20.04082443      11.65432789      30.64339728 
H      18.67325479      12.44205352      29.78899517 
H      19.64417188      13.36667986      30.98416040 
H      18.77058954      20.13947843      33.00975701 
H      18.88516434      21.84435637      33.54761790 
H      20.25683532      21.08606170      32.66043476 
H      19.69432281      27.95267323      30.25762177 
H      19.49922218      27.03303797      31.78385119 
H      18.31950103      26.80986744      30.44565852 
H      22.14323826      33.06913966      23.52933404 
H      23.05329237      31.63187090      24.10192937 
H      21.55851288      32.14209495      24.94263693 
H      24.02217597      31.59999425      17.00821880 
H      23.87946130      32.78061882      18.34649675 
H      22.43046713      31.87706009      17.79395675 
H      26.32575849      26.56207696      10.35119624 
H      26.86061383      26.36027977      12.05398001 
H      25.77053581      27.70904915      11.60562216 
H      26.86645047      21.33347585       8.95721087 
H      25.14642505      20.93224401       9.26782098 
H      26.42109389      19.68980172       9.50926325 
H      25.87384148      12.81379246      11.40813426 
H      25.81179166      11.17795487      12.12860661 
H      26.61448922      12.52020936      13.01316340 
H      24.60745439       8.24048636      16.47790347 
H      22.92896995       8.86507908      16.59971456 
H      23.81195580       8.35468348      18.07882715 
H       9.13899036      23.52347056      14.27605454 
H       9.68095204      23.52394946      15.99016770 
H       9.16602838      22.00027852      15.21141986 
H       9.52300695      18.99150644      12.78326791 
H      10.42569146      20.38521234      13.48175718 
H       9.34539156      19.40003310      14.51610067 
H       8.30710127      16.16386846      16.66243284 
H       9.70306172      16.89346862      15.80294557 
H       8.68208600      17.89972941      16.87009533 
H       7.92789198      19.56774828      18.98494666 
H       7.13505640      18.89156416      20.43740991 
H       8.45614289      17.98327959      19.62361154 
H       8.26100953      22.07535442      17.95498877 
H       7.57106902      23.40975921      18.92426399 
H       8.43547415      22.05801025      19.73524562 
H      12.31386927      28.47060324      12.04571020 
H      10.94008119      27.76848262      12.95100127 
H      11.79853337      26.78870309      11.72743313 
H       7.92118024      26.48509835      22.81176985 
H       8.67216662      27.57090959      21.60643174 
H       8.83979250      27.92212390      23.35157340 
H       7.36885429      16.28303095      24.58633619 
H       7.52183086      17.91889849      25.29069758 
H       7.92060511      16.48155247      26.27653366 
H       9.79112307      11.52226650      16.22210798 
H       9.78950175      11.49892727      18.00952982 
H      10.63017539      10.21010295      17.10140213 
H      13.75435876      17.49505038       8.17648190 
H      12.39545891      18.46682994       8.82293901 
H      12.63231631      16.77970110       9.37389341 
H      11.40450115      27.27111039      16.36207422 
H      10.75041443      27.52256541      18.01777750 
H      10.73764135      25.88548320      17.29562085 
H       9.27512581      23.54649239      23.74005435 
H       8.91214434      21.99212497      24.57208437 
H       9.07479070      22.03168916      22.78747637 
H       9.99733215      13.60133019      21.35184964 
H       9.76207069      15.28527269      20.78268644 
H       9.70863941      14.91966635      22.54356949 
H      12.13654555      14.64371352      12.94212415 
H      11.59449623      15.50918309      14.40601193 
H      11.86927533      13.73468969      14.47069561 
H      13.56845220      21.31091850      10.55228316 
H      13.44393482      23.09345589      10.77120894 
H      12.62170641      21.98904305      11.92072854 
H      15.55704026      25.44051698       9.12842073 
H      15.63546139      23.92506481      10.09096879 
H      17.06420720      24.47047285       9.17545682 
H      13.63895436      30.65616758      19.24444992 
H      11.96247384      30.54812066      19.86869398 
H      12.66946108      29.19240283      18.92108142 
H      10.84352277      22.41703142      28.26608972 
H       9.41677132      21.35618188      28.03760115 
H      10.28342941      22.03556277      26.61690149 
H      11.35876285      10.43053434      22.22128310 
H      11.69135450      12.17391882      22.49915016 
H      12.47000072      10.94506763      23.53055809 
H      14.99928272      12.75214435      10.73354145 
H      14.78091674      13.31349120      12.43142944 
H      16.07201091      12.13938523      12.03714764 
H      17.34917846      19.81356316       7.56262367 
H      16.37132580      21.22034742       8.07688769 
H      16.23842121      19.67589388       8.96335817 
H      14.92413016      30.85960775      14.81032632 
H      13.76149669      30.37199379      16.08288470 
H      14.32493933      29.16841295      14.88812821 
H      10.35454390      25.39633479      26.90311473 
H      10.94129858      26.18676076      25.41153221 
H      11.12052631      27.01055585      26.99517270 
H      10.85730106      12.96075563      25.65729828 
H      10.85657645      14.72880471      25.91787015 
H      11.12416550      13.61671814      27.30028713 
H      14.34032288      10.71595543      14.20011484 
H      14.07554933      10.89034209      15.95727358 
H      14.75909086       9.36593828      15.30205709 
H      21.53454064      17.25757733       8.26522186 
H      22.71443034      16.46574392       9.35515425 
H      22.43822335      18.22948085       9.47214466 
H      19.89885689      30.53515508      13.31101829 
H      21.42842704      29.60427732      13.29077671 
H      20.68190481      30.05732954      14.85298868 
H      16.91047301      29.93076835      26.65052548 
H      16.60643084      28.34120897      27.40899950 
H      15.26583077      29.51576940      27.21587280 
H      14.35099831      15.45233925      30.48906018 
H      15.71287324      16.53366117      30.90665238 
H      15.94355379      15.23919700      29.69451032 
H      18.24772240       7.83073769      18.70569402 
H      19.29389834       8.14840320      20.12029539 
H      19.63607532       8.95461799      18.56059782 
H      19.83625526       8.33796633      14.34134565 
H      18.52938418       9.34019219      15.05631946 
H      19.43338369       8.18105427      16.07658867 
H      21.47575298      13.66654133      10.01914327 
H      21.09687130      11.92283999      10.19219843 
H      22.43448058      12.64521165      11.14906146 
H      21.99623052      21.84055091       7.35233644 
H      20.66352791      21.02627994       8.24428939 
H      22.13497790      20.10887382       7.78063235 
H      21.32325210      26.75773025       9.04017456 
H      22.51513178      26.70131054      10.38594170 
H      21.07280091      27.76923874      10.49747074 
H      19.42084950      32.10100862      15.99920459 
H      18.82977590      33.03712250      17.40340108 
H      17.91646148      31.60131906      16.83087253 
H      17.04038295      32.68300555      22.74062386 
H      18.52410643      31.79215443      23.22287548 
H      16.95146982      31.43375447      24.02335133 
H      15.11513680      27.63857645      29.28751953 
H      14.53900671      26.52011754      30.55983214 
H      13.99912003      26.30152645      28.85965068 
H      14.67243263      19.54382712      31.45016581 
H      14.14484976      21.14602803      32.05061677 
H      15.87018096      20.86698192      31.65287647 
H      15.22461209      11.15592274      28.81562147 
H      14.41744591      12.49469978      27.93126128 
H      15.14913478      12.78859093      29.54019327 
H      17.25212785       8.36970873      22.79066549 
H      16.45299948       8.19480827      24.38461868 
H      18.12646883       8.83881381      24.28972602 
