646
Properties=species:S:1:pos:R:3 i=104 optimized=T E=-9778.5142112449 pbc="F F F" jobid=246_80-Ag-19_9-000004-PBE
Au      21.90082186      20.18183456      20.92226131 
Au      24.77770563      20.20591586      21.82264999 
Ag      20.45438402      22.67974934      20.46211706 
Au      19.75048326      20.93269805      22.73790791 
Au      20.00633379      18.13497236      21.86514017 
Au      21.15567429      23.49848283      23.16688467 
Ag      20.44173189      21.73405240      25.44635316 
Ag      20.74277158      18.94283753      24.64051767 
Au      20.96948709      16.14248200      23.74507592 
Au      21.87723541      16.09234750      20.97404349 
Ag      22.76501384      16.09341089      18.13316965 
Au      23.03440654      18.87826727      17.24026520 
Au      23.26403313      21.70831147      16.37264060 
Au      22.62902910      23.44129956      18.61968929 
Au      21.83900918      25.20155800      20.86419343 
Ag      23.37381525      22.69504112      21.35956790 
Au      22.64839635      20.97339478      23.63652230 
Ag      22.94150703      18.16279599      22.81659954 
Au      23.80048609      18.13737770      20.00382442 
Ag      24.08814986      20.93747635      19.11011791 
Au      20.89557059      13.95194800      19.05141349 
Au      21.84247078      14.02468302      16.23162086 
Au      22.15862034      16.84642812      15.31042188 
Au      22.32622238      19.69438439      14.40277769 
Au      22.61838367      22.58686844      13.58563805 
Au      21.95962663      24.33200473      15.82166383 
Au      21.10644888      26.06044332      18.14159255 
Au      20.37828807      27.80480905      20.44705913 
Au      25.30291788      22.48868176      14.46126680 
Ag      24.75948974      24.27273097      16.72852688 
Au      23.99398851      25.94409911      18.96592093 
Ag      23.14490692      27.78913832      21.23346268 
Au      22.54675982      26.09560466      23.60535073 
Au      21.83592521      24.32151329      25.86460331 
Ag      21.03339435      22.53307312      28.16673229 
Ag      21.38566564      19.70118416      27.44092671 
Au      21.62741492      16.96184202      26.52014260 
Au      21.78411565      14.05356041      25.60025656 
Ag      22.82565344      13.97221066      22.83091513 
Au      23.64386960      14.02425726      20.07138205 
Au      24.56278658      14.02982534      17.14157505 
Au      24.99290118      16.80152210      16.26775190 
Au      25.13232125      19.59032097      15.40411708 
Au      23.64632733      18.94333138      25.59232117 
Au      23.81379363      16.12929500      24.68742956 
Au      24.82113839      16.06807611      21.94530738 
Au      25.55783289      16.04941160      19.09674001 
Au      26.01936935      18.86000438      18.15869081 
Au      26.15612397      21.65313340      17.25656382 
Ag      25.59913448      23.48545391      19.50021403 
Au      24.71559081      25.20702885      21.71565513 
Au      24.11776751      23.55088714      24.09558366 
Au      23.23210042      21.76598403      26.31314969 
Au      26.25131417      22.78259087      22.26914093 
Ag      25.53177871      21.01476125      24.64372608 
Au      25.79585578      18.13141966      23.79351888 
Au      26.71075751      18.09040705      20.88211456 
Au      27.03267512      20.96100040      19.94242697 
Au      27.64689195      20.21167291      22.73911750 
Au      27.66207800      15.20274120      21.39984850 
Au      28.55979468      17.34287948      18.62787364 
Au      28.84690640      19.92847000      17.72812619 
Au      28.51923340      23.32999774      18.74235894 
Au      27.85573195      25.02408990      20.81742931 
Au      26.74188087      25.03186880      24.22380114 
Au      26.03183805      23.47063040      26.37954464 
Au      25.75030943      20.01469626      27.46349777 
Au      25.98418772      17.36002421      26.74981817 
Au      26.84828801      15.25805173      24.04511701 
Au      28.53147695      17.53054247      23.06024943 
Ag      29.37756798      19.32681788      20.63362987 
Au      29.03188256      22.35392944      21.48257733 
Au      28.10270719      22.40436709      24.47299738 
Au      27.82557787      19.34807392      25.44417323 
Au      25.58427916      13.30061611      22.24764534 
Au      26.26785937      13.29842095      19.31068670 
Ag      27.28777545      15.12928187      17.05849033 
Au      27.60422315      17.95424206      15.90439044 
Au      27.63286419      20.86601374      14.93220276 
Au      27.46970283      23.71017943      15.92539842 
Au      26.86225577      25.67365827      18.12624480 
Au      25.90739116      27.42614322      20.42131937 
Au      25.11330249      27.46780644      23.29853087 
Au      24.38678459      25.88730500      25.81136582 
Ag      23.57524317      24.01311933      28.06680657 
Au      23.36047878      21.13399480      28.99966547 
Au      23.63886761      18.13469409      28.36796575 
Au      23.72020173      15.21751090      27.37393733 
Au      24.57632566      13.46433392      25.07451223 
Au      24.37366554      11.48824028      15.44153200 
Au      24.16077705      14.79812711      14.36683286 
Au      24.20447900      17.53916357      13.43370406 
Au      24.38161823      20.37341197      12.63110409 
Au      25.48123798      23.32099535      11.52853648 
Ag      24.16282901      25.14899240      14.01605765 
Au      23.27906706      26.82229139      16.21019948 
Au      22.43874041      28.48660830      18.49136217 
Au      22.49172120      30.70847871      20.91188444 
Ag      21.19942989      28.61720307      23.26223019 
Ag      20.37789098      26.87047644      25.49658340 
Au      19.66712092      25.03656078      27.72582462 
Ag      19.33399304      23.59582899      30.47767754 
Au      19.30173838      20.43501697      29.30442459 
Au      19.43805663      17.68019351      28.39280242 
Au      19.67907275      14.90825542      27.47699592 
Au      20.60222731      11.75928650      27.21649850 
Au      21.00474598      11.91228260      23.77876820 
Ag      21.81145584      11.84980228      20.96740619 
Au      22.69029042      11.99277024      18.15930855 
Au      29.80261194      14.32813349      23.51181776 
Au      31.47321776      18.25602065      18.08645021 
Au      30.89549820      24.93424333      20.04583066 
Au      28.68976742      25.09647182      26.66372725 
Au      28.04529623      18.48930058      28.86823814 
Au      28.97395659      27.71422537      18.89490164 
Au      30.25132655      18.62742298      14.74457664 
Au      28.13248317      11.74019813      21.74057506 
Au      25.37880230      16.45219969      30.13076805 
Au      25.83693497      26.41025019      28.37775370 
Au      26.62433814      26.78263678      15.22332602 
Au      23.18674286      28.79196904      25.70925764 
Au      21.70923056      18.91642508      30.73344845 
Ag      23.89589365      11.00001618      23.26491885 
Au      27.16803349      15.68208250      13.89314150 
S      29.71832106      23.02848350      26.23815633 
S      29.53796532      18.58089335      27.05992151 
S      30.73264614      16.44929266      23.12404682 
S      31.82044376      19.49094685      20.04943505 
S      31.12335112      23.57894866      21.94969057 
S      27.77236888      27.18602419      27.24762367 
S      30.82521823      26.40818942      18.21000814 
S      31.38478188      17.02951663      16.06886518 
S      29.07949332      12.11758441      23.87869463 
S      26.71640374      18.28367931      30.80354615 
S      28.05195205      26.51284494      22.77866946 
S      29.88400339      22.07481440      17.12197915 
S      29.06823103      15.06089568      19.37560062 
S      26.95019124      15.11347933      26.49064077 
S      26.15098047      22.21664321      28.49461029 
S      24.02316063      25.80368415      29.74134146 
S      27.28966091      29.23013302      19.52299243 
S      29.29907313      20.20255243      13.28130241 
S      27.34423415      11.12818657      19.61024054 
S      24.11237517      14.52352720      29.67725975 
S      22.76052655      20.94813026      31.35349469 
S      24.89480845      29.66650760      24.31547751 
S      28.20189005      25.32080260      14.23630002 
S      28.01591140      13.81581788      15.07433978 
S      24.61856660      11.10628480      25.62222209 
S      20.49388154      16.91520991      30.48782050 
S      21.40764737      28.37270422      27.19518007 
S      25.08705649      28.44271097      15.87700850 
S      26.38919245      17.29366296      12.34673137 
S      23.26081256       9.85289151      21.21398462 
S      20.43183479      10.18939884      25.47664700 
S      20.62247510      13.25705723      29.03289059 
S      18.41626830      21.54871363      31.33230313 
S      20.33185697      25.73025145      29.95831399 
S      21.15907125      31.08569974      22.80469091 
S      23.82134252      30.45371905      18.98366368 
S      24.70864464      25.53934696      11.59988392 
S      26.26295852      21.11371827      11.24114294 
S      24.27468011      12.55350799      13.34867495 
S      24.37222833      10.33359570      17.49429948 
C      31.39075623      23.35138903      25.56564598 
C      30.82044077      19.83186507      27.43465914 
C      31.68304862      16.94618733      24.60807237 
C      32.93525982      18.50878136      21.12197756 
C      32.62396716      22.54885948      21.75508619 
C      28.83200362      27.82669914      28.60709028 
C      32.26141846      27.53425808      18.43267276 
C      33.10243975      17.05242600      15.41314127 
C      30.60931758      11.09720993      23.85675796 
C      27.83163252      17.56822547      32.07824260 
C      29.76437249      26.57877619      23.42599916 
C      31.62884740      22.17181605      17.67009459 
C      30.86363764      14.96446559      19.73718488 
C      28.71407408      15.08956442      26.98125204 
C      27.82736490      22.26206691      29.23558981 
C      24.79132618      24.85416843      31.11488905 
C      27.93000453      30.02616471      21.04810683 
C      30.46654373      21.61891769      13.30992496 
C      28.81299618      11.24346021      18.51521208 
C      25.35653827      13.18901675      29.47236800 
C      24.20951564      20.52907499      32.39150797 
C      26.32245201      30.05613639      25.39302941 
C      29.85905932      25.99171871      14.63159261 
C      29.83611749      13.83867016      14.86314609 
C      26.33133923      10.46192201      25.68640182 
C      19.15525413      17.07998110      31.73475477 
C      20.43843385      29.93445378      27.13020199 
C      24.66199464      29.27931724      14.29763557 
C      26.02309163      16.29535013      10.84924746 
C      22.14752514       8.51131114      21.79997666 
C      21.70402860       8.90460136      25.78002695 
C      19.28207591      12.68316378      30.14453188 
C      19.35582470      21.14576776      32.85711940 
C      19.17604796      27.03453400      30.52620746 
C      22.15600942      32.13102263      23.93651253 
C      23.34153136      31.81696041      17.85705012 
C      26.17680555      26.60643828      11.32568678 
C      25.91442005      20.70087918       9.48980285 
C      25.87435599      12.24665539      12.50827547 
C      23.53107771       8.73462980      17.19487503 
Ag      19.00027021      20.16967407      20.01337170 
Au      16.15929425      20.13865951      19.13209052 
Au      21.14242145      20.97235209      18.20106737 
Au      20.90344251      18.14231035      19.07243124 
Au      19.71525369      23.47830527      17.75378575 
Ag      20.46588853      21.76354813      15.47587534 
Au      20.18719358      18.96016120      16.29811052 
Au      20.00383968      16.17331620      17.18953504 
Ag      19.05306640      16.10109609      19.97675941 
Au      18.17001869      16.10096517      22.79395996 
Au      17.87887898      18.85541045      23.70517944 
Au      17.64431719      21.66518255      24.59596138 
Au      18.31394174      23.42691148      22.31735221 
Au      18.99738401      25.13256293      20.02871142 
Ag      17.49600661      22.66919642      19.56613292 
Au      18.24435080      20.99732093      17.26664679 
Ag      18.01612151      18.17213913      18.11816896 
Ag      17.09660746      18.11591305      20.93397891 
Au      16.81822830      20.88760534      21.84192167 
Au      20.06318889      13.94375195      21.90009875 
Au      19.08021484      14.01197484      24.72911233 
Au      18.78432707      16.84081430      25.62995755 
Ag      18.59258325      19.66993787      26.52105584 
Au      18.30002605      22.45245127      27.34483712 
Au      18.97186806      24.30750362      25.10835112 
Au      19.74770566      26.08779875      22.79375009 
Ag      15.54941594      22.41969078      26.53874963 
Au      16.15721713      24.19853364      24.24461929 
Au      16.87224033      25.87445104      21.93812075 
Au      17.60511702      27.67009716      19.62954894 
Au      18.23211152      26.03726848      17.29998645 
Au      19.07057179      24.31606358      15.07337165 
Au      19.92001155      22.62110692      12.78085219 
Au      19.52149288      19.76106239      13.51286203 
Ag      19.32483484      16.98026217      14.36357697 
Au      19.15508025      14.15660372      15.28572064 
Au      18.12438261      14.07198387      18.09863962 
Au      17.24737749      14.06840082      20.88245584 
Au      16.39264953      14.00523080      23.81642606 
Ag      15.99478779      16.79347853      24.68482167 
Au      15.76308984      19.56023394      25.53323333 
Au      17.31146391      18.97198030      15.29883055 
Au      17.16619156      16.19197624      16.22277892 
Au      16.09217338      16.11987938      19.01922095 
Au      15.31805751      16.05636228      21.83893269 
Ag      14.85448876      18.81053635      22.79905858 
Au      14.74575941      21.60234039      23.71051088 
Au      15.30234916      23.41224161      21.43810762 
Ag      16.09473676      25.19347269      19.23920722 
Ag      16.76521003      23.54080042      16.80977104 
Ag      17.60705723      21.82852183      14.56496518 
Au      14.64977452      22.75412615      18.66343757 
Au      15.42975560      20.99060293      16.33629280 
Au      15.13653554      18.09320380      17.13297199 
Au      14.14399043      18.03991189      20.03115025 
Au      13.88242142      20.90876922      20.98208844 
Au      13.24836129      20.13888676      18.19205446 
Au      13.20815819      15.16090319      19.51593240 
Au      12.35363635      17.27341614      22.35852987 
Au      12.03935411      19.85172804      23.27422417 
Au      12.37732009      23.28477360      22.17015453 
Au      13.12422076      25.02902260      20.15857695 
Au      14.18157439      24.94229216      16.65375600 
Au      14.87771494      23.42831033      14.46214408 
Au      15.25991088      20.09481206      13.42948649 
Au      15.03635526      17.42082044      14.13673396 
Au      14.07629555      15.25045495      16.90450328 
Ag      12.34938857      17.46214192      17.76459743 
Au      11.55629778      19.30332638      20.32130464 
Au      11.87805131      22.33447551      19.40668449 
Au      12.85099735      22.32456312      16.39953525 
Au      13.16833752      19.38825004      15.44713441 
Au      15.40363562      13.32438442      18.68271982 
Au      14.62421180      13.26565291      21.67110238 
Au      13.74039659      15.15151245      23.91966946 
Ag      13.33177729      17.88875227      25.05531870 
Au      13.22764392      20.76402900      25.95735999 
Au      13.39639349      23.62010678      25.04900330 
Au      14.04968283      25.62295737      22.88044180 
Au      14.99822686      27.54969893      20.72047609 
Ag      15.64218998      27.39537072      17.48761189 
Au      16.48374323      25.81965559      15.05083420 
Au      17.47303504      24.08098463      12.75677519 
Au      17.59762053      21.21581977      11.83227235 
Au      17.33265942      18.21397634      12.48095995 
Ag      17.17211526      15.35137883      13.49211179 
Au      16.40626429      13.53669206      15.81069464 
Au      16.52274784      11.45524239      25.47206084 
Au      16.83889536      14.76827545      26.61831227 
Au      16.73118415      17.52524070      27.46369963 
Au      16.49801730      20.32648598      28.31508069 
Au      15.32368461      23.12295422      29.45697234 
Au      16.75846031      25.09395740      26.90787661 
Au      17.60092037      26.79314608      24.68856939 
Au      18.31611685      28.47959007      22.40460896 
Ag      18.51641837      30.53604330      20.03748230 
Ag      19.54552491      28.61425383      17.65663702 
Au      20.51766953      26.88432052      15.48883901 
Ag      21.25579272      25.17844731      13.19060546 
Au      21.36766933      23.75012575      10.34522048 
Au      21.55524768      20.48850828      11.62120867 
Au      21.51706093      17.71843661      12.49651443 
Au      21.30903425      14.93642189      13.46507247 
Au      20.37559533      11.78438074      13.80641676 
Ag      19.82895797      11.93830542      17.13069352 
Au      19.09061441      11.93560251      19.94697991 
Au      18.23188373      11.97657409      22.75372994 
Au      11.11403020      14.27275785      17.34166383 
Ag       9.50221351      18.30043692      22.72935321 
Au      10.04721191      24.99400121      20.86101726 
Au      12.17199258      25.06068377      14.29373379 
Au      12.93292984      18.43187902      12.07537639 
Ag      12.05922573      27.51613162      21.81919850 
Ag      10.60033361      18.80486185      25.88038164 
Ag      12.85016585      12.03420998      19.31638733 
Au      15.64602444      16.46787705      10.75037370 
Au      14.93670437      26.44126869      12.57220984 
Au      14.25840874      26.74577573      25.71744964 
Au      17.54252478      28.75821386      15.29416437 
Au      19.18001931      18.89178012      10.14089248 
Au      16.86503632      10.77060186      17.53244182 
Au      13.78848679      15.70397154      27.15979862 
S      11.18346212      22.96963818      14.69069962 
S      11.47222744      18.48306848      13.91294915 
S      10.09878465      16.36732205      17.61608262 
S       9.16095724      19.57413627      20.71304027 
S       9.86491592      23.66450605      18.93565436 
S      13.03024515      27.19058518      13.75711460 
S      10.05381898      26.44238459      22.70723018 
S       9.22709973      17.12390663      24.80690692 
S      11.87385444      12.06310729      17.08331310 
S      14.23950572      18.27066495      10.12315330 
S      13.00688701      26.48439464      18.16081681 
S      10.98990572      22.05219388      23.76032475 
S      11.70274109      15.07171072      21.46524516 
S      14.14439447      15.14166454      14.45241479 
S      14.72348461      22.21889225      12.32040101 
S      16.75591658      25.84468673      11.21270231 
S      13.47995139      29.38857178      21.18170891 
S      11.50704825      20.26404616      27.58900574 
S      13.41929348      11.17205640      21.51900593 
S      16.96101309      14.56171544      11.13401766 
S      18.16277409      20.91982382       9.46133441 
S      15.86928427      29.74133319      16.64353510 
S      12.67426084      25.26953440      26.68120135 
S      12.85572229      13.96762044      25.85594605 
S      16.30227894      11.16421500      15.26854181 
S      20.37201696      16.88656578      10.48949581 
S      19.32158508      28.21155033      13.83602488 
S      15.79135236      28.42158884      25.07950722 
S      14.63788924      17.23390346      28.73443534 
S      17.58969818      10.01987822      19.64640413 
S      20.54770255      10.17014890      15.50302760 
S      20.30782393      13.26289367      11.96964593 
S      22.38586588      21.73676507       9.67133625 
S      20.47059063      25.84868747      10.89963030 
S      19.79168619      31.06645216      18.06392586 
S      17.04796565      30.51526009      21.96842681 
S      16.15626792      25.31092963      29.28151534 
S      14.53237864      20.92606878      29.71504508 
S      16.57164985      12.49610420      27.57646444 
S      16.57467309      10.29525646      23.42299103 
C       9.52426097      23.26574766      15.40379507 
C      10.13443884      19.68209563      13.55835788 
C       9.17640548      16.73141754      16.07573872 
C       8.11990439      18.66325251      19.51300352 
C       8.32641259      22.68298094      19.08618259 
C      11.92215541      27.84571565      12.44399936 
C       8.70050975      27.64999865      22.39505723 
C       7.51836061      17.46217624      25.40695183 
C      10.36878503      11.01160045      17.20903413 
C      13.13108655      17.53440919       8.85452402 
C      11.31043656      26.72188117      17.50526557 
C       9.25126543      22.16801140      23.19373950 
C       9.94190490      15.18555999      20.97632380 
C      12.44022247      14.94769154      13.80394948 
C      12.99541564      22.10665943      11.72046030 
C      16.01571013      24.89145982       9.82986683 
C      12.92128057      29.97871888      19.53786012 
C      10.46478777      21.77539365      27.55099523 
C      11.94896410      11.44397383      22.58310496 
C      15.74559643      13.19622526      11.32831400 
C      16.69747629      20.49181360       8.45144117 
C      14.50509623      30.20602527      15.50935953 
C      11.00918013      25.90395029      26.26326715 
C      11.03417224      14.10550633      25.97585992 
C      14.57828701      10.60487169      15.01606836 
C      21.68524038      16.94018384       9.20646332 
C      20.28115559      29.77564055      13.74343833 
C      16.22820363      29.21764942      26.67571807 
C      15.12980874      16.14963785      30.13367651 
C      18.69380645       8.61129842      19.23290330 
C      19.28133007       8.89720411      15.12063289 
C      21.59236625      12.65938972      10.80921915 
C      21.58093930      21.22655414       8.10491056 
C      21.62950097      27.07230947      10.17268755 
C      18.71422440      32.12333556      17.01670689 
C      17.60518820      31.82803254      23.11927242 
C      14.73641361      26.43841876      29.55989888 
C      14.89814343      20.46957221      31.45239685 
C      14.94152534      12.19432409      28.35957095 
C      17.46269173       8.72969846      23.76948438 
H      31.84988854      22.37576574      25.36233757 
H      31.97539180      23.87990103      26.32697351 
H      31.35405367      23.93119511      24.63824382 
H      31.49917485      19.86446338      26.57309107 
H      31.37279388      19.50678794      28.32347001 
H      30.38993300      20.82571676      27.59076522 
H      32.07799188      17.95139240      24.41483361 
H      32.51338520      16.24306794      24.73854769 
H      31.05745858      16.97127639      25.50598483 
H      33.89049362      18.36354803      20.60580010 
H      32.49562598      17.54383344      21.39283814 
H      33.10192773      19.09568782      22.03421697 
H      33.49556518      23.21223985      21.72146842 
H      32.58183670      21.92344786      20.85782887 
H      32.68695951      21.90346050      22.64017174 
H      29.80851641      28.08577362      28.18176636 
H      28.95706711      27.08519820      29.40080589 
H      28.35302412      28.72660372      29.01042597 
H      32.18246571      28.33155126      17.68441481 
H      33.17518467      26.95367983      18.26100359 
H      32.27899878      27.96706282      19.43653930 
H      33.08413491      16.62407634      14.40416625 
H      33.72225414      16.42967273      16.06862590 
H      33.50374614      18.06894598      15.37881352 
H      30.30932394      10.04278736      23.86746050 
H      31.18133900      11.32850017      24.76277496 
H      31.21680440      11.30197799      22.97114742 
H      28.57145802      18.33117523      32.34664339 
H      28.33820600      16.67240026      31.70898760 
H      27.22262863      17.31746628      32.95460788 
H      30.39066541      27.07876942      22.67694503 
H      30.15270974      25.57462328      23.61666465 
H      29.74552877      27.15581173      24.35832968 
H      32.20741591      21.44005231      17.09301314 
H      31.72195089      21.95039918      18.73658903 
H      31.98392442      23.18929382      17.46731146 
H      31.40161181      15.03148100      18.78449037 
H      31.05706900      14.00061123      20.22342864 
H      31.17047970      15.78053104      20.39807239 
H      29.11497864      14.10124486      26.72595023 
H      28.76845462      15.25773070      28.06395978 
H      29.28165246      15.86629510      26.46207980 
H      28.03447624      23.29363312      29.54518588 
H      28.58143407      21.93673346      28.51330425 
H      27.82348740      21.59189250      30.10335036 
H      23.96732201      24.42117782      31.69607435 
H      25.37189022      25.53377050      31.74815705 
H      25.42817447      24.04672938      30.73731902 
H      28.76523185      30.68245324      20.77915991 
H      28.24866271      29.27624468      21.78033481 
H      27.10663418      30.61933307      21.46538550 
H      31.38837658      21.32570753      12.79529420 
H      30.68052887      21.93221065      14.33782036 
H      29.98095011      22.44089197      12.76916412 
H      28.44971114      11.13481247      17.48555960 
H      29.49883705      10.42440303      18.75915026 
H      29.31372122      12.21117434      18.62443557 
H      24.82512717      12.31783745      29.06910504 
H      25.77939208      12.95049759      30.45464892 
H      26.14511875      13.48902859      28.77394478 
H      24.77409306      21.45595770      32.55077325 
H      24.85174230      19.78598186      31.90792215 
H      23.84721745      20.14884184      33.35362827 
H      27.15156784      30.35243456      24.73891392 
H      26.62217938      29.19301430      25.99601118 
H      26.04675131      30.89549538      26.04174231 
H      30.01103590      26.90769618      14.04914093 
H      30.59439176      25.23615557      14.32905507 
H      29.96902305      26.20001791      15.70033459 
H      30.07930232      13.63579810      13.81426929 
H      30.24228003      13.03771989      15.49327684 
H      30.26629876      14.79737756      15.17129910 
H      26.27366392       9.36948715      25.76489389 
H      26.82786708      10.86900360      26.57476594 
H      26.90245258      10.73945089      24.79599839 
H      18.45213774      16.25395299      31.57109191 
H      18.63002218      18.03498248      31.62832151 
H      19.59454201      16.99727142      32.73561986 
H      19.51465724      29.76787319      27.69797441 
H      20.18607368      30.21079370      26.10078555 
H      21.01715285      30.73614509      27.60265064 
H      25.53192122      29.85703767      13.96434854 
H      23.82336642      29.95678803      14.50015888 
H      24.37206446      28.55584201      13.52841112 
H      25.50193910      16.94679351      10.13701156 
H      25.39007364      15.43563410      11.09058758 
H      26.97136071      15.95680858      10.41581896 
H      21.69328593       8.03890049      20.92039553 
H      21.35583705       8.90038384      22.44928386 
H      22.73959755       7.76552948      22.34315669 
H      21.72849103       8.24327420      24.90589853 
H      21.39820947       8.33356424      26.66435383 
H      22.69143115       9.35065144      25.93711443 
H      19.62386155      11.77483785      30.65447871 
H      18.36130988      12.47878364      29.58690715 
H      19.11113767      13.47562727      30.88330790 
H      19.15736519      20.10162945      33.12586148 
H      18.99291564      21.80430121      33.65518125 
H      20.43170919      21.28548342      32.71405594 
H      19.43968296      27.96251262      30.00460450 
H      19.32094266      27.16759875      31.60505866 
H      18.13459514      26.76496529      30.32056039 
H      22.22662734      33.13629831      23.50624326 
H      23.15488232      31.71000811      24.08804439 
H      21.62871233      32.17887225      24.89676566 
H      23.81132962      31.61061967      16.88764710 
H      23.73844910      32.75378513      18.26497132 
H      22.25198679      31.87770011      17.75051478 
H      26.48567861      26.50570629      10.27908386 
H      27.00054178      26.33113612      11.99169308 
H      25.87871146      27.64356510      11.52040079 
H      26.62442772      21.24868233       8.85914684 
H      24.88626601      20.96532956       9.21872027 
H      26.07503378      19.62250319       9.37046740 
H      25.89987405      12.86011506      11.59985530 
H      25.90910976      11.18526368      12.23625985 
H      26.71996493      12.50458225      13.15419162 
H      24.23014012       8.07106802      16.67247090 
H      22.61987028       8.86859517      16.60163248 
H      23.28961447       8.31736023      18.18030664 
H       8.90826622      23.76891265      14.64997904 
H       9.57704389      23.86318064      16.31955517 
H       9.09230251      22.28404454      15.63509919 
H       9.57342625      19.32675739      12.68665550 
H      10.52334671      20.68933315      13.38000475 
H       9.47689239      19.69850013      14.43652267 
H       8.40961612      15.96263880      15.93052940 
H       9.83786872      16.78000740      15.20521519 
H       8.69128843      17.70611863      16.21358321 
H       8.11522810      19.22830614      18.57274101 
H       7.10174607      18.61692308      19.91669465 
H       8.49597541      17.65405750      19.31912670 
H       8.23691088      22.07911347      18.17452417 
H       7.47965999      23.37512607      19.15318469 
H       8.35377582      22.01777221      19.95492524 
H      12.37354761      28.76432709      12.05125630 
H      10.95337311      28.07558683      12.90243963 
H      11.78880593      27.12170732      11.63565782 
H       7.73752426      27.14546775      22.53371215 
H       8.75654195      28.06609902      21.38542619 
H       8.80125903      28.45766765      23.12987885 
H       6.81990010      16.85461187      24.81974164 
H       7.25286198      18.51814149      25.30568843 
H       7.45614487      17.17048599      26.46182437 
H       9.76543937      11.15035325      16.30463543 
H       9.77333276      11.26433267      18.09071678 
H      10.69657729       9.96725616      17.27493835 
H      13.73788183      17.30884827       7.96972580 
H      12.36635818      18.27726973       8.59981863 
H      12.65489029      16.62079157       9.22065435 
H      11.39013869      27.28086649      16.56581877 
H      10.74083590      27.29363467      18.24815223 
H      10.82444862      25.75731713      17.33092539 
H       8.94091695      23.21533520      23.29406758 
H       8.63890523      21.52575668      23.83874759 
H       9.15037852      21.84705830      22.15321798 
H       9.69372645      14.30064965      20.37749810 
H       9.75282875      16.08601567      20.38521045 
H       9.34481786      15.20569370      21.89664705 
H      12.48121840      15.03200144      12.71129216 
H      11.77905749      15.71898287      14.20986775 
H      12.08409056      13.95463815      14.10281663 
H      12.98768453      21.43220768      10.85574703 
H      12.67376864      23.11345770      11.42661369 
H      12.33154396      21.72192449      12.49901140 
H      15.43825658      25.57594394       9.19857306 
H      15.38033919      24.08118328      10.20362243 
H      16.85043128      24.46830967       9.25706868 
H      13.72276393      30.59414386      19.11075259 
H      12.01924500      30.58580743      19.67764837 
H      12.71317743      29.14160653      18.86275247 
H      10.99313799      22.56079147      28.10525785 
H       9.51259694      21.54815769      28.04426832 
H      10.28956709      22.11030226      26.52228154 
H      11.21675355      10.65892201      22.36067925 
H      11.50928704      12.43240330      22.40773741 
H      12.26983252      11.36725176      23.62926467 
H      15.28598865      12.97728840      10.35837353 
H      14.97587543      13.44632097      12.06657916 
H      16.30927642      12.32177509      11.67726724 
H      17.04114936      20.06181411       7.50361890 
H      16.15550460      21.42543738       8.25689154 
H      16.03954662      19.78706081       8.97016007 
H      14.84571169      31.00596626      14.84273307 
H      13.68217905      30.57644905      16.13329292 
H      14.15860641      29.34801162      14.92414650 
H      10.28425889      25.13814997      26.56496939 
H      10.90566205      26.10400124      25.19199975 
H      10.83681357      26.82167771      26.83738336 
H      10.61007451      13.40999582      25.24136752 
H      10.68019058      15.11936481      25.76280652 
H      10.73227017      13.80432334      26.98557746 
H      14.28195695      10.91962589      14.00793811 
H      13.89388413      11.04048408      15.75125444 
H      14.55743762       9.51085983      15.08072532 
H      21.21908726      16.79098495       8.22561372 
H      22.38304534      16.11970592       9.41428974 
H      22.22330445      17.89312906       9.22835951 
H      19.69442871      30.50525194      13.17323081 
H      21.21657895      29.55784175      13.21384053 
H      20.50235550      30.16677580      14.74233340 
H      17.04289427      29.92473998      26.47626156 
H      16.55788536      28.47776845      27.41229256 
H      15.35219019      29.76078773      27.04877757 
H      14.22373771      15.75965083      30.61164056 
H      15.68656979      16.77035817      30.84653418 
H      15.76483161      15.32563729      29.79207216 
H      18.08053268       7.78963507      18.84532156 
H      19.18659163       8.29878569      20.16174130 
H      19.45133516       8.89942335      18.49623367 
H      19.61319944       8.33622217      14.23970567 
H      18.30213374       9.34903534      14.93506122 
H      19.21502049       8.22098535      15.98126922 
H      21.72846868      13.43289679      10.04362138 
H      21.22523874      11.73977117      10.33863364 
H      22.53748288      12.46665720      11.32854398 
H      21.91744936      21.91375569       7.31968806 
H      20.49014431      21.24946004       8.18934972 
H      21.91267552      20.20829958       7.86983725 
H      21.48759569      27.09376169       9.08618427 
H      22.67072224      26.82702621      10.40950393 
H      21.36848029      28.05150054      10.59256380 
H      19.16824989      32.20340751      16.02183942 
H      18.66226851      33.11819811      17.47366759 
H      17.70891575      31.69990701      16.92137120 
H      17.19652908      32.78110194      22.76201255 
H      18.69836932      31.88681642      23.16468618 
H      17.19566292      31.60613015      24.11204468 
H      15.06043958      27.45632463      29.31340069 
H      14.47035106      26.38265722      30.62184895 
H      13.88052395      26.16146719      28.93682593 
H      14.72777072      19.38950561      31.54062679 
H      14.19926328      21.00447792      32.10593501 
H      15.93227514      20.71490998      31.72021588 
H      14.89737854      11.13608250      28.64261316 
H      14.11969236      12.44014609      27.68019029 
H      14.87722662      12.81878262      29.25852977 
H      17.72028735       8.28299700      22.80139883 
H      16.78120573       8.06302151      24.31099038 
H      18.36841216       8.90478526      24.36063621 
