646
Properties=species:S:1:pos:R:3 i=77 optimized=T E=-9687.7218877361 pbc="F F F" jobid=246_80-Ag-10_2-000007-PBE
Au      21.91649534      20.21544488      20.92517838 
Au      24.80650028      20.20783562      21.87059971 
Au      20.47738952      22.72976049      20.45679236 
Au      19.74212321      20.98179311      22.71555657 
Ag      20.02450284      18.17822060      21.84788878 
Ag      21.16652554      23.54484049      23.15780839 
Au      20.38313194      21.80635700      25.42199594 
Au      20.68364007      18.97603094      24.60914006 
Au      20.94905840      16.17753148      23.72656248 
Au      21.89143685      16.11883927      20.97429095 
Au      22.75955237      16.15481441      18.14046276 
Ag      23.10130472      18.92213478      17.25371769 
Au      23.33329040      21.70923446      16.36025061 
Au      22.63034861      23.49767435      18.60433827 
Ag      21.88061528      25.24721118      20.87814135 
Au      23.38437449      22.74313572      21.36874378 
Au      22.65115916      21.03159973      23.66334197 
Au      22.92221118      18.19981119      22.83615562 
Au      23.83844340      18.16607433      20.04226146 
Au      24.12931145      20.96778218      19.12606853 
Au      20.88574729      14.01328035      18.97779086 
Au      21.83983662      14.05824536      16.17045735 
Ag      22.17836720      16.89415527      15.31143040 
Au      22.39378301      19.70730655      14.41268273 
Au      22.69609098      22.58393557      13.57031213 
Au      21.99108471      24.37073274      15.85069927 
Au      21.16224042      26.12917478      18.12774273 
Au      20.47931794      27.83758369      20.47923016 
Au      25.40525683      22.47403899      14.46094131 
Au      24.80669395      24.30612463      16.74731637 
Au      24.00374223      25.99975744      18.98142871 
Ag      23.20994318      27.79419328      21.26411389 
Au      22.54798683      26.13615751      23.62665090 
Au      21.77933614      24.40437991      25.82045617 
Au      20.92172207      22.64773531      28.15316266 
Au      21.36125378      19.75787651      27.40871734 
Au      21.58024937      16.98203372      26.51857734 
Au      21.75452022      14.14122553      25.63754598 
Ag      22.84564925      14.01556852      22.85977686 
Au      23.72274998      14.05620927      20.07813944 
Au      24.50486582      14.05022126      17.16144799 
Au      24.95367197      16.86071375      16.24329702 
Au      25.21604366      19.61919201      15.39100689 
Au      23.65776706      19.00612092      25.63318054 
Au      23.77867928      16.19968612      24.70668403 
Au      24.84920638      16.07439490      21.95131790 
Au      25.58812260      16.11618922      19.09249443 
Au      26.06257780      18.88735327      18.17147893 
Au      26.19464288      21.69238519      17.26627665 
Ag      25.62032962      23.52707376      19.51784516 
Au      24.71877943      25.22779701      21.73464288 
Ag      24.11847707      23.61055076      24.12031477 
Au      23.22356514      21.87260260      26.32728423 
Au      26.26065645      22.80218865      22.29490166 
Au      25.50852833      21.06179986      24.67172953 
Au      25.81956809      18.14573731      23.82555836 
Ag      26.75034865      18.08791336      20.93041900 
Au      27.00635894      20.97233261      19.98651262 
Au      27.66760043      20.19944206      22.78594444 
Au      27.64868152      15.21454597      21.43659982 
Au      28.55905774      17.33767122      18.66884335 
Au      28.83571887      19.92705478      17.73011610 
Ag      28.51049591      23.26253215      18.74523310 
Au      27.82626078      25.02079286      20.82638585 
Au      26.76730388      25.05122371      24.29252669 
Au      26.02950724      23.51675116      26.47094555 
Au      25.69099153      20.09654415      27.52359760 
Au      25.92574227      17.43874807      26.80381820 
Au      26.81869821      15.29997769      24.07216041 
Au      28.53732539      17.54217967      23.17942201 
Au      29.35691676      19.43227150      20.63062417 
Au      29.02050951      22.37283680      21.50200236 
Au      28.04488875      22.39888541      24.56168637 
Ag      27.79395324      19.43783302      25.54429407 
Au      25.57523223      13.29245195      22.28177062 
Ag      26.35783366      13.34306219      19.34399854 
Au      27.17673021      15.09358103      17.05955863 
Au      27.61730289      17.91888346      15.91341410 
Ag      27.77229085      20.82026355      15.00851777 
Au      27.55115055      23.70728841      15.91508614 
Au      26.92506497      25.67204562      18.13887137 
Au      25.94598079      27.44333141      20.45011302 
Au      25.16462686      27.45081709      23.33593763 
Au      24.40364708      25.88552663      25.83344563 
Au      23.43560482      24.08667643      28.09658390 
Au      23.28432353      21.24948733      29.04875192 
Au      23.56767815      18.22719806      28.42032375 
Ag      23.70635349      15.36070329      27.46101072 
Au      24.52949797      13.58684053      25.19076432 
Au      24.32019939      11.57169385      15.39237257 
Au      24.13745857      14.86971055      14.34134771 
Au      24.24296214      17.61158867      13.42575570 
Au      24.46777723      20.40665684      12.62444974 
Au      25.61284210      23.25234862      11.51299906 
Au      24.23762758      25.17546652      14.05181137 
Au      23.32788953      26.88256074      16.21598341 
Au      22.53871251      28.54848984      18.52669814 
Ag      22.28658832      30.65094368      20.83891154 
Au      21.23221600      28.67345454      23.25511692 
Au      20.30418116      26.97724234      25.45373646 
Au      19.52037022      25.19080476      27.64225213 
Au      19.43208422      23.71496729      30.56982395 
Au      19.31436651      20.48684810      29.29452867 
Au      19.38706577      17.71618368      28.37508194 
Ag      19.64820343      14.92013666      27.52042504 
Au      20.58880915      11.86303456      27.25051345 
Au      21.01980747      11.94418539      23.74961464 
Au      21.81137945      11.95964840      20.97840596 
Au      22.65920585      12.01138566      18.17377195 
Au      29.72530858      14.27412147      23.56361231 
Au      31.46415264      18.21135380      18.05186282 
Au      30.84436896      24.91907923      19.98411102 
Au      28.79512806      25.01473303      26.69401731 
Au      28.04765730      18.47631672      28.82340951 
Au      28.96063967      27.73456568      18.88241539 
Au      30.23407337      18.57173810      14.67673985 
Au      28.04044897      11.68189310      21.72293471 
Au      25.29684979      16.54910237      30.16208839 
Au      25.95552876      26.39876572      28.37692773 
Au      26.69038626      26.82417602      15.25020887 
Au      23.27732743      28.79633090      25.71716742 
Au      21.67801405      18.87733290      30.72796929 
Au      24.07908720      10.87294733      23.38122232 
Au      27.15886524      15.68291218      13.81701314 
S      29.77438497      22.92973457      26.23065964 
S      29.57881178      18.50234954      27.04831873 
S      30.70817572      16.37727461      23.20710536 
S      31.75418895      19.46459381      20.01433288 
S      31.12622259      23.58715339      21.89280563 
S      27.94426626      27.12148212      27.31409766 
S      30.75557431      26.38214849      18.14323347 
S      31.39103126      17.00617498      16.03020133 
S      28.93496043      12.07898177      23.88281749 
S      26.70580792      18.35994054      30.76013050 
S      28.11057472      26.48377935      22.81903676 
S      29.85970973      22.03998799      17.00640216 
S      29.08198802      15.06336411      19.45076007 
S      26.81333615      15.15829684      26.52714013 
S      26.20239231      22.24340015      28.58624716 
S      24.05779578      25.85537360      29.65742050 
S      27.31606730      29.26867205      19.57294704 
S      29.29862676      20.10060080      13.16205185 
S      27.31244723      11.05023034      19.58325672 
S      23.97641520      14.63788263      29.83035577 
S      22.70374610      20.90709660      31.39154585 
S      25.01059339      29.65499814      24.35259178 
S      28.24402557      25.34853042      14.24197108 
S      27.95301498      13.86165929      15.10682456 
S      24.56652970      11.19916934      25.67469310 
S      20.49802435      16.86057013      30.39323292 
S      21.46498804      28.31960100      27.14922485 
S      25.16125842      28.48971269      15.92250450 
S      26.38090414      17.25352264      12.24211763 
S      23.48582654      10.17328464      21.20855773 
S      20.36560666      10.32513127      25.48445384 
S      20.66745505      13.25533554      29.13619296 
S      18.46874943      21.68913117      31.27262296 
S      20.28141663      25.80610112      29.90107210 
S      21.07504687      31.08726055      22.87535647 
S      23.78248588      30.60491491      18.94239389 
S      24.81232540      25.45453986      11.67544414 
S      26.36255176      21.04713583      11.18482514 
S      24.23883974      12.62928365      13.29587790 
S      24.33642423      10.37560219      17.41968238 
C      31.42390960      23.21107322      25.48732827 
C      30.90433105      19.69087977      27.48456519 
C      31.69265916      16.79942907      24.69197191 
C      32.81380204      18.50062345      21.15467697 
C      32.60141808      22.53569037      21.63243174 
C      29.00353171      27.68660857      28.70651933 
C      32.23345223      27.46156453      18.32243914 
C      33.10833990      17.05305727      15.37548763 
C      30.43878835      11.02211150      23.92732813 
C      27.79465249      17.64280668      32.05680508 
C      29.82252742      26.52426679      23.46861827 
C      31.65785253      22.07973468      17.37791076 
C      30.86191367      14.93802707      19.87180580 
C      28.53699733      15.00218903      27.13195766 
C      27.91742514      22.17104647      29.22721989 
C      24.72012263      24.89943333      31.07810219 
C      27.99736980      30.01350375      21.10676632 
C      30.49497076      21.49562102      13.13570581 
C      28.81601612      11.17165789      18.53271215 
C      25.18832381      13.26748792      29.65290721 
C      24.16815321      20.48398869      32.40370017 
C      26.45269133      29.97891525      25.43238696 
C      29.92738771      25.99088933      14.56058829 
C      29.77963818      13.84715203      14.99370435 
C      26.26640692      10.59077208      25.97374945 
C      19.17024197      16.91725259      31.66082790 
C      20.52169118      29.89560397      27.16729098 
C      24.74730440      29.33344134      14.34421053 
C      25.90611133      16.21709485      10.80245320 
C      22.47228478       8.67168085      21.51056404 
C      21.60517162       9.00268439      25.76063322 
C      19.36833903      12.59825031      30.25425479 
C      19.31926668      21.19374594      32.81936990 
C      19.12985878      27.05702142      30.58495726 
C      22.20544900      32.05346921      23.95205253 
C      23.21544759      31.88609226      17.76026506 
C      26.24491868      26.56561212      11.40226092 
C      25.95655027      20.64017602       9.44461110 
C      25.84624524      12.29668464      12.47787945 
C      23.50874596       8.78026811      17.06009645 
Au      19.00691920      20.20195966      19.97860184 
Au      16.08746181      20.20163651      19.04494516 
Au      21.19947601      20.99002561      18.18100639 
Au      20.92327013      18.18249504      19.06008387 
Au      19.74362777      23.54424589      17.74105603 
Au      20.52312066      21.80417870      15.48027641 
Au      20.25497936      18.99772210      16.29309973 
Au      19.98695814      16.18290204      17.16262399 
Au      19.05566229      16.12541329      19.93405327 
Au      18.18475877      16.14126136      22.74785712 
Au      17.86096567      18.90115611      23.63960863 
Au      17.60050157      21.71611295      24.54044414 
Au      18.29902642      23.48488777      22.30027525 
Au      19.08140825      25.22222380      20.05280985 
Au      17.51667399      22.71875862      19.52692654 
Au      18.24737370      21.04462670      17.22508066 
Au      18.00044898      18.19721747      18.07862939 
Au      17.09530375      18.15331839      20.87498042 
Au      16.78533565      20.95212584      21.75859264 
Au      20.05730233      14.01799375      21.88553377 
Au      19.08329545      14.08385126      24.74261076 
Ag      18.76199239      16.85999391      25.60179364 
Au      18.55077021      19.69557460      26.50026929 
Au      18.19980336      22.57354542      27.33671099 
Au      18.90910677      24.35624127      25.03450240 
Au      19.74683303      26.11726296      22.78042028 
Au      15.49449504      22.47632216      26.43717692 
Au      16.05934262      24.27335763      24.15698157 
Au      16.89088505      25.98299847      21.94837650 
Au      17.74789583      27.78061102      19.65714328 
Au      18.33669637      26.10007904      17.25190686 
Au      19.08998058      24.36202543      15.04842876 
Au      19.96120276      22.63463592      12.75538836 
Au      19.56434050      19.79044830      13.51248184 
Au      19.35533565      17.02008513      14.38244894 
Au      19.16494223      14.12977521      15.28152227 
Ag      18.09256823      14.04449298      18.03059726 
Au      17.25724680      14.06092784      20.79897001 
Au      16.42996412      14.03801912      23.76239588 
Au      15.98793077      16.81406690      24.67337110 
Au      15.75971058      19.57127240      25.50701278 
Au      17.26394156      19.03719817      15.32337851 
Au      17.14364659      16.21960666      16.17652058 
Au      16.06480381      16.09533855      18.94228646 
Au      15.32141854      16.06833858      21.78902902 
Au      14.86807952      18.82421545      22.73224900 
Au      14.75758751      21.62192525      23.65643680 
Au      15.28225623      23.48105077      21.39056202 
Au      16.16830812      25.22683791      19.18736139 
Au      16.76128307      23.59780141      16.76666174 
Ag      17.64975597      21.86635939      14.52916001 
Au      14.61236046      22.79017883      18.61830960 
Au      15.39123857      21.06354545      16.25143187 
Au      15.09110117      18.14254593      17.07472701 
Au      14.16806258      18.10836574      19.99506929 
Ag      13.85134068      20.96210541      20.93061496 
Au      13.20469849      20.21550343      18.13329934 
Au      13.24634007      15.18031172      19.48972040 
Au      12.33638073      17.24613031      22.26096605 
Au      12.10404090      19.84796016      23.17053839 
Au      12.39190330      23.31680459      22.04937896 
Au      13.06065245      25.04708753      20.01386511 
Au      14.16188168      25.07427667      16.60457572 
Au      14.90706045      23.51030170      14.42794602 
Au      15.25877845      20.11355731      13.36786591 
Au      14.96071427      17.43351749      14.07340431 
Au      14.09432708      15.29761477      16.84196915 
Au      12.36479334      17.51701595      17.79165469 
Au      11.56796647      19.28499378      20.25658818 
Au      11.84552670      22.41413021      19.27775157 
Au      12.83231861      22.42423885      16.35033129 
Au      13.15551675      19.47180370      15.36188312 
Au      15.35989984      13.30997041      18.61712283 
Au      14.64169342      13.31414707      21.60786206 
Au      13.74155370      15.07043566      23.85887896 
Au      13.30552219      17.87004948      24.98789554 
Au      13.24877893      20.78942737      25.92650515 
Ag      13.26852625      23.67473985      24.90465317 
Au      14.00160680      25.69872817      22.74752136 
Au      14.99035218      27.48606600      20.45656674 
Au      15.77294908      27.46122189      17.56578547 
Au      16.51306942      25.89170960      15.00180053 
Au      17.52128061      24.09806771      12.71340701 
Au      17.65502476      21.17937344      11.80013978 
Au      17.34084456      18.24056486      12.55766413 
Au      17.25693975      15.32298539      13.45708117 
Au      16.36383979      13.59005287      15.76424023 
Au      16.61849255      11.55249240      25.51727159 
Au      16.79533328      14.83603935      26.57358310 
Au      16.69926235      17.55947916      27.49908981 
Au      16.47799377      20.37487789      28.28180025 
Au      15.29848586      23.22549340      29.39235776 
Au      16.61785725      25.14289163      26.85211217 
Au      17.54335577      26.85433469      24.72013873 
Au      18.32744055      28.53351935      22.43643468 
Au      18.28982398      30.74672947      20.03538373 
Au      19.65378759      28.63818712      17.60591555 
Au      20.56797286      26.96529593      15.42500685 
Au      21.34260828      25.18427864      13.23827049 
Au      21.44077779      23.71532333      10.31399771 
Au      21.64600807      20.51837114      11.62879524 
Au      21.55820546      17.75278938      12.49104439 
Au      21.29045440      14.98020759      13.42485021 
Au      20.33875258      11.81515884      13.69939121 
Ag      19.88246209      11.92535239      17.08681212 
Au      19.15657156      11.96047246      19.89049765 
Au      18.25169722      12.02307598      22.70687107 
Au      11.15157018      14.27921837      17.33162599 
Au       9.41836977      18.25118962      22.81518512 
Au      10.00834103      24.93691737      20.92002802 
Au      12.17031085      25.10544340      14.19868108 
Au      12.80424623      18.47071818      12.02342076 
Au      11.92837694      27.71025739      22.04499531 
Au      10.62021426      18.60998415      26.13660639 
Au      12.86520188      11.70656075      19.13590307 
Ag      15.46675686      16.54297769      11.08240552 
Au      14.98903628      26.41537408      12.45221631 
Au      14.15693833      26.68520614      25.64809511 
Au      17.58930537      28.77298099      15.13889615 
Ag      19.27606437      18.99344525      10.38525270 
Au      16.89103924      10.85535045      17.48713705 
Au      13.74799325      15.70042606      27.10678676 
S      11.15717625      23.04029670      14.65453091 
S      11.39212815      18.58914957      13.89627672 
S      10.17945966      16.38729711      17.67973182 
S       9.18742406      19.52613860      20.85839898 
S       9.70815394      23.62890839      18.99664010 
S      13.05394712      27.19419953      13.56928161 
S      10.13495354      26.36108405      22.79336165 
S       9.43813604      17.03106707      24.83006791 
S      11.92253442      12.07919277      16.99795383 
S      14.06585855      18.25820001      10.05800585 
S      12.82768404      26.53111265      18.06409460 
S      11.14515086      22.05226013      23.73615722 
S      11.74679582      15.01041783      21.43908364 
S      13.98349682      15.18509114      14.39333571 
S      14.73077030      22.25874395      12.31673116 
S      16.81173806      25.80394149      11.10194474 
S      13.56365408      29.24952916      21.34942674 
S      11.59353779      20.16328596      27.60858639 
S      13.65651270      11.11067854      21.26843835 
S      16.74190838      14.47897263      11.24555317 
S      18.16300012      20.97553763       9.42315209 
S      15.90512664      29.66653082      16.54021537 
S      12.60832133      25.25020859      26.71639142 
S      12.93872583      13.88004042      25.82970752 
S      16.34609154      11.21387197      15.21160831 
S      20.57760888      16.93072951      10.40638918 
S      19.37918802      28.25233035      13.69443623 
S      15.64062542      28.38974538      24.94636491 
S      14.53442170      17.27860010      28.67023778 
S      17.54996632      10.13051209      19.62981143 
S      20.53214798      10.19249213      15.38547398 
S      20.27238364      13.32711799      11.89288605 
S      22.42322340      21.70062272       9.61162373 
S      20.59557716      25.80790654      10.97733595 
S      19.65924293      31.04010483      18.14916054 
S      16.98030908      30.54852011      21.97960704 
S      16.08442975      25.43428627      29.24529277 
S      14.56484883      21.01058169      29.69435158 
S      16.72360030      12.60056439      27.62130886 
S      16.58792668      10.38020844      23.47430925 
C       9.50568833      23.34747995      15.38295921 
C      10.07048583      19.80497693      13.53994775 
C       9.21614097      16.83757918      16.18915323 
C       8.10277615      18.60484231      19.70513028 
C       8.22636359      22.58321436      19.24388540 
C      11.97656066      27.78792781      12.20263122 
C       8.66689132      27.46103250      22.66718252 
C       7.71887790      17.12715517      25.47522974 
C      10.41298529      11.02961688      16.99867909 
C      12.99043574      17.34422452       8.87662735 
C      11.10808178      26.55006416      17.43489367 
C       9.35375717      22.19536953      23.37172868 
C       9.97356519      15.03111973      20.97990969 
C      12.21960041      15.11468965      13.90912552 
C      13.00283001      22.15974801      11.71789584 
C      16.07887852      24.79735956       9.75319757 
C      12.87110593      30.00100837      19.82429428 
C      10.45259852      21.60159118      27.59756450 
C      12.17064529      11.18123670      22.34489283 
C      15.53335460      13.13657651      11.57013956 
C      16.69750228      20.39777844       8.48825221 
C      14.43993055      30.01862486      15.50260698 
C      10.94451071      25.96568881      26.43492813 
C      11.11169011      13.90477667      25.93808037 
C      14.64404952      10.58734259      14.96435700 
C      21.90238501      17.21709110       9.16598803 
C      20.31734223      29.82896549      13.60620002 
C      16.00338131      29.29519431      26.50272298 
C      14.96685828      16.24893678      30.12825648 
C      18.59259027       8.65897508      19.27896328 
C      19.26816862       8.91085306      15.02990042 
C      21.56710286      12.75891557      10.72743241 
C      21.56830142      21.18352771       8.07372459 
C      21.76235701      27.04736347      10.29751053 
C      18.70967935      32.05658697      16.95409640 
C      17.50753098      31.90657895      23.09159539 
C      14.64224011      26.53238934      29.51843028 
C      14.94325525      20.59571782      31.43891172 
C      15.11546335      12.29038591      28.44783524 
C      17.43967177       8.79200379      23.80772879 
H      31.83989586      22.22469055      25.24692452 
H      32.05854462      23.70570200      26.23131486 
H      31.36611554      23.81018312      24.57352985 
H      31.61810457      19.69385738      26.65096571 
H      31.40979618      19.34599123      28.39309856 
H      30.51494965      20.70414185      27.62475916 
H      32.11125894      17.80022874      24.52767064 
H      32.50655203      16.07158598      24.78485904 
H      31.07980869      16.81047363      25.59865695 
H      33.78981559      18.34989851      20.67989214 
H      32.36097391      17.53928923      21.41647829 
H      32.93768796      19.10044089      22.06511488 
H      33.48033621      23.18576107      21.55755598 
H      32.50660637      21.91118628      20.73888729 
H      32.69604773      21.88986007      22.51442773 
H      29.99658778      27.91699678      28.30363542 
H      29.08560392      26.92182098      29.48352117 
H      28.55274706      28.59468037      29.12368757 
H      32.15671920      28.26029627      17.57544589 
H      33.12326903      26.85277578      18.12469061 
H      32.29331029      27.89456972      19.32459724 
H      33.09493912      16.62175040      14.36764367 
H      33.73844689      16.44174296      16.03183753 
H      33.49400915      18.07545055      15.33652976 
H      30.11299900       9.97532079      23.93040367 
H      30.98171170      11.24408948      24.85331615 
H      31.08385439      11.20755039      23.06419556 
H      28.56004371      18.38692184      32.30598393 
H      28.27146039      16.72038976      31.71408877 
H      27.17721456      17.43695148      32.93902600 
H      30.45953232      27.00413429      22.71539769 
H      30.19275983      25.51609836      23.67274994 
H      29.81455787      27.11247604      24.39410852 
H      32.16464177      21.34733155      16.73828717 
H      31.84431140      21.83894686      18.42882640 
H      32.01782238      23.09194601      17.15841383 
H      31.42690858      14.99872108      18.93396142 
H      31.02827841      13.97048221      20.36067057 
H      31.16235895      15.74688177      20.54366535 
H      28.89641793      14.00526874      26.85059953 
H      28.52486780      15.11386765      28.22289487 
H      29.17864159      15.77118126      26.69223313 
H      28.21189884      23.18568952      29.52217642 
H      28.60859724      21.79394119      28.46820529 
H      27.91830523      21.50239046      30.09632792 
H      23.85628938      24.47850027      31.60765977 
H      25.26701190      25.58263346      31.73747520 
H      25.37175045      24.08732654      30.73754801 
H      28.83551638      30.66659622      20.83911155 
H      28.32016198      29.23972672      21.81193696 
H      27.19114453      30.60583339      21.55728521 
H      31.41835460      21.17567932      12.64093747 
H      30.70850910      21.85686543      14.14793155 
H      30.02478336      22.30015437      12.55617227 
H      28.48346316      11.04432573      17.49473097 
H      29.51257722      10.36919928      18.79869172 
H      29.30098364      12.14819195      18.63830692 
H      24.61752064      12.38553579      29.33586848 
H      25.66180763      13.07298153      30.62136767 
H      25.94721328      13.49860698      28.89727386 
H      24.70629317      21.41937887      32.60028441 
H      24.82982921      19.78251381      31.88540611 
H      23.82271337      20.05182212      33.34985411 
H      27.29942062      30.22500733      24.78017238 
H      26.70379339      29.10717706      26.04438609 
H      26.21783345      30.83702718      26.07266166 
H      30.06192201      26.91303285      13.98361297 
H      30.63500885      25.22985394      14.20932559 
H      30.09302665      26.18225062      15.62548342 
H      30.05996295      13.55510273      13.97503663 
H      30.14191108      13.09481083      15.70504788 
H      30.20928781      14.82354459      15.23976414 
H      26.26629496       9.49900017      25.87707475 
H      26.53237928      10.86941550      27.00081408 
H      26.98459585      11.03231748      25.27546579 
H      18.48406094      16.08650269      31.45526764 
H      18.62234590      17.86402567      31.62080282 
H      19.62677718      16.78475215      32.64858146 
H      19.57432868      29.70468859      27.68637222 
H      20.31695809      30.24713996      26.15053011 
H      21.10121547      30.64425726      27.71982789 
H      25.62384696      29.90035453      14.00976511 
H      23.91711327      30.02102375      14.54746485 
H      24.44566522      28.61348761      13.57670666 
H      25.39376249      16.86883497      10.08395029 
H      25.23456745      15.40607507      11.10214690 
H      26.81607218      15.80876724      10.34783981 
H      22.01960437       8.38280856      20.55391100 
H      21.68378789       8.86674007      22.24457879 
H      23.13090357       7.87021554      21.86482609 
H      21.64244596       8.37873915      24.85989507 
H      21.26427037       8.40078434      26.61125884 
H      22.59624270       9.41997832      25.96315634 
H      19.71120232      11.65080935      30.68521216 
H      18.42263742      12.44712833      29.72238603 
H      19.23364114      13.33377183      31.05701527 
H      19.01854311      20.16622116      33.05573111 
H      18.98257932      21.86873730      33.61497013 
H      20.40699194      21.24403866      32.71084097 
H      19.36988967      28.01367299      30.10511762 
H      19.30497975      27.13387512      31.66442566 
H      18.08693328      26.78452842      30.38941229 
H      22.17095633      33.09511879      23.61089660 
H      23.23095438      31.67555625      23.90410652 
H      21.84596874      31.99338046      24.98597405 
H      23.65734007      31.66270686      16.78188889 
H      23.58170957      32.85796417      18.11235645 
H      22.12260198      31.90574799      17.68635744 
H      26.50430889      26.51630857      10.33821765 
H      27.10074946      26.27160285      12.01763674 
H      25.93631507      27.58562122      11.65984779 
H      26.66436098      21.16641986       8.79355328 
H      24.92912290      20.92946634       9.19762314 
H      26.08594451      19.55735467       9.32728361 
H      25.90881974      12.92941364      11.58469121 
H      25.85730675      11.24096550      12.18256388 
H      26.68600107      12.51450818      13.14475705 
H      24.20452161       8.15504162      16.48822692 
H      22.58292434       8.93060574      16.49336797 
H      23.29427071       8.30179698      18.02338721 
H       8.89451987      23.87774978      14.64400453 
H       9.56330325      23.91912089      16.31423018 
H       9.06074046      22.36629606      15.59106905 
H       9.47695297      19.43015242      12.69834482 
H      10.47254619      20.79686668      13.31264580 
H       9.43924401      19.86821536      14.43511843 
H       8.40690851      16.10879327      16.06763265 
H       9.83956654      16.87399996      15.29065352 
H       8.79014368      17.83220915      16.37145287 
H       8.02610528      19.20322882      18.78860163 
H       7.11189915      18.50558132      20.16229323 
H       8.51194320      17.62024629      19.45834935 
H       8.11811434      21.96140094      18.34632101 
H       7.35277019      23.23724656      19.34349260 
H       8.32444797      21.93581680      20.12076745 
H      12.44044218      28.68461991      11.77534426 
H      10.99944528      28.04317139      12.62881380 
H      11.85698291      27.02624209      11.42739992 
H       7.77388800      26.85667083      22.86421229 
H       8.59466682      27.91931894      21.67714760 
H       8.76391139      28.23968121      23.43275205 
H       7.07955362      16.52066242      24.82329183 
H       7.35621663      18.15836329      25.49654366 
H       7.71639975      16.70993985      26.48900949 
H       9.84872934      11.24980306      16.08507583 
H       9.79036234      11.22390624      17.87616309 
H      10.73284882       9.98106505      16.99317591 
H      13.60837603      17.06637427       8.01443164 
H      12.18218228      18.00822583       8.54960334 
H      12.56694270      16.44301244       9.32836537 
H      11.10021381      27.12805066      16.50301025 
H      10.47519859      27.03096331      18.19086587 
H      10.74677818      25.53579754      17.24667267 
H       9.05844147      23.23681745      23.54434983 
H       8.81806010      21.52332082      24.05314315 
H       9.14561565      21.91214357      22.33588825 
H       9.75981128      14.11962883      20.40818581 
H       9.73111355      15.90862071      20.37479993 
H       9.39242017      15.04634920      21.90978413 
H      12.15556209      15.28161673      12.82671817 
H      11.63646186      15.87749631      14.43125111 
H      11.84487360      14.11675003      14.16678333 
H      12.99381696      21.49609838      10.84481194 
H      12.68310681      23.17132343      11.43881555 
H      12.33965726      21.76435959      12.49170947 
H      15.52084319      25.45947657       9.08195711 
H      15.42657989      24.01443773      10.15510741 
H      16.91420119      24.33145440       9.21530770 
H      13.66784052      30.61282393      19.38292611 
H      12.02126625      30.63561191      20.09931064 
H      12.56272560      29.23016697      19.10950259 
H      10.96274422      22.41436621      28.12976300 
H       9.53314188      21.32594797      28.12605789 
H      10.22749099      21.92212018      26.57496903 
H      11.51126377      10.34407167      22.08982576 
H      11.64523674      12.13536978      22.22937481 
H      12.52319755      11.07881541      23.37884436 
H      15.04177107      12.88161847      10.62397994 
H      14.78883991      13.44432448      12.31296906 
H      16.08820706      12.26840491      11.94685734 
H      17.04029451      20.01482484       7.51959978 
H      16.03168912      21.25417467       8.32808986 
H      16.15211138      19.61484510       9.02403128 
H      14.67265027      30.87101603      14.85396123 
H      13.61913579      30.28391206      16.18010777 
H      14.15157916      29.15203289      14.89949198 
H      10.21501793      25.24934152      26.83275278 
H      10.74943592      26.12945557      25.37009353 
H      10.86256375      26.91108167      26.98266297 
H      10.73501814      13.15710878      25.22940712 
H      10.70378371      14.88825227      25.68440688 
H      10.82119900      13.62535067      26.95735020 
H      14.33041564      10.89249218      13.95851656 
H      13.94860874      10.99633638      15.70376473 
H      14.66508690       9.49329499      15.02755704 
H      21.45679707      17.15840040       8.16568367 
H      22.65555992      16.42775325       9.27774769 
H      22.37689810      18.19375786       9.30656928 
H      19.72801535      30.55682215      13.03656444 
H      21.25807113      29.62246237      13.08097656 
H      20.53579490      30.21753536      14.60604089 
H      16.81679288      30.00058056      26.29248920 
H      16.31057769      28.60856670      27.29796544 
H      15.10458230      29.84568282      26.80408856 
H      14.04245231      15.87041457      30.57960129 
H      15.48982497      16.89567675      30.84363582 
H      15.61895758      15.41600111      29.84648570 
H      17.94374614       7.84816926      18.92801488 
H      19.07448760       8.36632326      20.21990236 
H      19.35825117       8.88233456      18.52843563 
H      19.58059808       8.35614306      14.13793878 
H      18.28158362       9.35740208      14.87153161 
H      19.22901702       8.23040340      15.88889111 
H      21.71639168      13.56453995       9.99806904 
H      21.20138934      11.86152362      10.21471957 
H      22.50520224      12.53991105      11.24900815 
H      21.87153631      21.87496162       7.27873594 
H      20.48046417      21.19714052       8.19586605 
H      21.90361600      20.16959977       7.82564733 
H      21.59775542      27.11873207       9.21599333 
H      22.80185691      26.77005267      10.50423230 
H      21.52431726      28.00896360      10.76844849 
H      19.25867714      32.06234706      16.00509367 
H      18.65269499      33.07574225      17.35373972 
H      17.70546915      31.65057230      16.79836888 
H      17.13674293      32.85290385      22.68106500 
H      18.59807606      31.93762211      23.19445129 
H      17.03978096      31.72248227      24.06660812 
H      14.95262333      27.55902547      29.29066240 
H      14.36250510      26.45854795      30.57577095 
H      13.80010900      26.24893711      28.87851301 
H      14.81313193      19.51229700      31.55037358 
H      14.22526075      21.11858110      32.08156329 
H      15.96647971      20.88507817      31.70243722 
H      15.08663397      11.23297710      28.73584700 
H      14.27551796      12.52843720      27.78799228 
H      15.07007440      12.91734080      29.34612378 
H      17.64280996       8.32303584      22.83728717 
H      16.76450405       8.15357204      24.38953927 
H      18.37394487       8.95198397      24.35739250 
