646
Properties=species:S:1:pos:R:3 i=84 optimized=T E=-10428.3011335101 pbc="F F F" jobid=246_80-Ag-89_8-000002-PBE
Ag      21.85987725      20.16709950      20.91363245 
Ag      24.68701507      20.15020342      21.83202026 
Ag      20.45899560      22.69809221      20.44542914 
Ag      19.71962270      20.95054009      22.72077978 
Ag      19.98884768      18.12666814      21.85372025 
Ag      21.14708570      23.49754625      23.17110001 
Ag      20.36856976      21.74196197      25.42111120 
Ag      20.66122945      18.93773275      24.59855334 
Ag      20.91023992      16.12272277      23.72201746 
Ag      21.86866533      16.10274920      20.91638743 
Ag      22.77538143      16.12244757      18.09649337 
Ag      23.07195613      18.90567006      17.22100269 
Ag      23.31944560      21.72415423      16.35127735 
Ag      22.59152017      23.44786356      18.59635020 
Ag      21.83863853      25.19034994      20.89100972 
Ag      23.30354841      22.66566390      21.35373709 
Au      22.56704078      20.96555741      23.64780766 
Ag      22.83490400      18.14929007      22.79058318 
Ag      23.76204089      18.13218452      19.99424662 
Ag      24.03742464      20.93392009      19.10534781 
Ag      20.91369199      14.01428441      18.97833193 
Ag      21.85339710      14.03582736      16.17192856 
Ag      22.15500678      16.85025627      15.30322367 
Ag      22.38580602      19.70545311      14.42227040 
Ag      22.68955379      22.54629704      13.57309657 
Ag      21.96837182      24.29433020      15.84725564 
Ag      21.18596359      26.05363994      18.15835119 
Ag      20.46112934      27.78400341      20.45089147 
Ag      25.40650497      22.47319604      14.52551551 
Ag      24.79281837      24.26125220      16.71953848 
Au      23.99393812      25.92983151      19.02814853 
Ag      23.21170017      27.67831674      21.32663763 
Ag      22.56882986      26.05324072      23.63679742 
Ag      21.79284408      24.28247386      25.86645144 
Ag      20.96017837      22.54452818      28.10544551 
Ag      21.29090555      19.71695774      27.37189160 
Ag      21.56378093      16.95425419      26.48127477 
Ag      21.81998475      14.10545517      25.59684034 
Au      22.80891245      14.05136458      22.81468553 
Ag      23.68664473      14.07533204      19.98838597 
Ag      24.55432756      14.08434018      17.15854499 
Ag      24.93945148      16.81278169      16.24339412 
Ag      25.16627958      19.64579687      15.40381224 
Ag      23.57192653      18.94543818      25.58357439 
Au      23.70169988      16.18440054      24.68950367 
Ag      24.75772516      16.04799585      21.90357386 
Ag      25.53823010      16.07830776      19.05521648 
Ag      25.93647234      18.88403914      18.16432161 
Ag      26.11297165      21.67183532      17.25126854 
Ag      25.49844606      23.46237888      19.50422883 
Ag      24.66063509      25.16974336      21.76000736 
Ag      24.04398380      23.49521333      24.12019941 
Ag      23.19180389      21.76054038      26.33922035 
Ag      26.13046535      22.68428368      22.25444388 
Au      25.43959256      20.95508169      24.57643398 
Ag      25.71647946      18.10160570      23.73438740 
Au      26.60804046      18.10382086      20.89996291 
Ag      26.89402013      20.93426091      20.00095746 
Ag      27.54562135      20.14914695      22.73025164 
Ag      27.50343213      15.22246174      21.25790348 
Ag      28.36723954      17.35934055      18.71228713 
Ag      28.63517057      20.01970186      17.75365071 
Ag      28.31258384      23.19396083      18.81912297 
Ag      27.58958878      24.95321315      20.91691451 
Ag      26.58042000      24.86200843      24.17370298 
Ag      25.88928227      23.27943845      26.42390697 
Ag      25.56059104      20.10165969      27.40728305 
Ag      25.77212937      17.36675335      26.66082578 
Au      26.74245417      15.32633687      23.91877794 
Ag      28.50092254      17.47394974      22.98260808 
Ag      29.25857168      19.37315293      20.59638308 
Au      28.88504933      22.36044673      21.56217545 
Ag      27.98586164      22.32836911      24.51195905 
Ag      27.64512944      19.36807430      25.46930546 
Ag      25.49918461      13.27993599      22.21272378 
Ag      26.31383706      13.29387833      19.30942442 
Ag      27.28519436      15.14984504      16.98908611 
Au      27.52364792      17.98210537      15.98259117 
Ag      27.72478776      20.79614648      14.97885743 
Ag      27.61683514      23.73860156      15.99067790 
Ag      26.81541958      25.62837745      18.18869324 
Ag      25.96207401      27.42105153      20.41866360 
Ag      25.19659929      27.38693527      23.46248240 
Ag      24.34702824      25.71285420      25.85718877 
Ag      23.50530942      23.94587490      28.16224346 
Au      23.21472051      21.08258167      29.05002785 
Ag      23.53147808      18.21261415      28.33095198 
Ag      23.70829771      15.34858559      27.42587254 
Ag      24.65632570      13.56898119      25.12296787 
Ag      24.14846161      11.77505599      15.24361747 
Ag      24.01358525      14.82594555      14.35848883 
Ag      24.20813336      17.62279306      13.50126814 
Ag      24.51286459      20.41456648      12.65858065 
Ag      25.31266939      23.31998935      11.60637565 
Ag      24.10806480      25.06093122      14.02814467 
Ag      23.32292874      26.78101795      16.28760372 
Ag      22.64001024      28.49016389      18.58957983 
Ag      22.32901156      30.55470070      20.98182284 
Ag      21.14235592      28.54605566      23.20262750 
Ag      20.36416975      26.80419871      25.43021652 
Ag      19.66292775      25.09630514      27.70681847 
Ag      19.24904875      23.48923263      30.41415572 
Ag      19.19676545      20.47537535      29.20675983 
Ag      19.41339087      17.69092398      28.30318196 
Ag      19.71074295      14.91831444      27.44461614 
Au      20.51056318      11.82754488      27.02262625 
Ag      21.06556372      11.97825504      23.70971520 
Ag      21.83392716      12.03964941      20.88952246 
Ag      22.75532430      12.00568154      18.10874691 
Ag      29.56387188      14.43675183      23.28954896 
Ag      31.15003600      18.39866059      18.08547997 
Ag      30.49426954      24.87359996      20.07622613 
Ag      28.47977178      24.80061695      26.53554893 
Ag      27.94190561      18.39950945      28.42897782 
Ag      28.86057948      27.57773524      19.00438050 
Ag      30.15335922      18.64662467      14.88431787 
Ag      28.03687151      11.85860985      21.73352570 
Ag      25.49085380      16.61102948      29.84885857 
Ag      25.90052680      26.17479162      28.27480176 
Ag      26.45348064      26.57401939      15.30395137 
Ag      23.13591665      28.49831312      25.55756843 
Ag      21.47712647      18.84859085      30.49594561 
Au      23.97082439      10.86275149      23.25988929 
Ag      26.88785494      15.85233865      13.95387114 
S      29.63630029      22.70333123      26.34619746 
S      29.50350712      18.17047548      26.61003303 
S      30.76553326      16.44334934      22.70578262 
S      31.62426374      19.85515896      19.93405768 
S      30.86820585      23.73478536      22.16022860 
S      27.76374872      27.04895201      27.02067974 
S      30.59737705      26.19360021      18.06784153 
S      31.22614825      16.91944062      16.18846802 
S      28.93140515      12.20162583      23.94456968 
S      26.84926866      18.47318687      30.57089183 
S      27.78738636      26.60778433      22.83360877 
S      29.68680644      22.19231961      16.96525616 
S      28.90457124      14.94486156      19.16769445 
S      26.74691615      15.02257646      26.38076280 
S      26.09824491      22.18208232      28.69469325 
S      24.08760743      25.74719583      29.77560664 
S      27.35279268      29.32564901      19.63206012 
S      29.39740339      20.20728257      13.22835641 
S      27.27131478      11.02037065      19.62754064 
S      24.14093642      14.62843663      29.75415116 
S      22.59499424      20.81403548      31.40720516 
S      24.82938872      29.69521722      24.29311963 
S      28.08943280      25.26106736      14.08459384 
S      27.74950742      13.80465930      14.95466200 
S      24.45997291      11.13680431      25.55355869 
S      20.16091135      16.81471751      30.51289368 
S      21.36968268      28.23331310      27.19753712 
S      25.07120297      28.48273240      15.85568445 
S      26.22777310      17.28599188      12.10462362 
S      23.45450701      10.13745468      21.07382752 
S      20.20304764      10.24682734      25.30160851 
S      20.84331336      13.20900820      28.89689425 
S      18.21368748      21.49067034      31.26247051 
S      20.42621181      25.54365251      30.03158340 
S      20.92084050      31.01265962      22.87700083 
S      23.94596726      30.51232714      19.21081960 
S      24.52023332      25.59299287      11.62615561 
S      26.45517730      21.22846646      11.34150077 
S      24.04798654      12.71275663      13.02872361 
S      24.54607329      10.50257267      17.23900636 
C      31.31534641      23.07169441      25.70546419 
C      30.89090004      19.31920475      26.96627201 
C      31.85070931      16.81192850      24.14000785 
C      32.81342048      18.94226152      20.99431689 
C      32.41241606      22.76280413      21.97450924 
C      28.91371869      27.68723892      28.31348961 
C      32.12101508      27.22466524      18.20095494 
C      32.98245318      16.93032226      15.62665749 
C      30.47413052      11.19276420      23.96760806 
C      28.02970426      17.72705094      31.77546126 
C      29.44620833      27.02727835      23.51425147 
C      31.49144023      22.49621101      17.17233692 
C      30.71317743      14.62672828      19.31170922 
C      28.43083614      14.59086163      26.97923380 
C      27.76026034      22.15454953      29.48281745 
C      24.81350260      24.77384099      31.15547819 
C      27.98662730      30.04248824      21.19975437 
C      30.54894780      21.63721869      13.26995925 
C      28.71886861      11.08561500      18.49564279 
C      25.30114836      13.22306259      29.51163989 
C      24.02110054      20.23283310      32.40297330 
C      26.15751773      30.17716575      25.46682418 
C      29.72459186      26.06487041      14.31772809 
C      29.56401385      13.79132004      14.66686058 
C      26.11793747      10.39547290      25.81675260 
C      18.81161313      17.20101296      31.70377185 
C      20.48213707      29.84280299      27.08892698 
C      24.66514691      29.19108070      14.20543069 
C      25.72267032      16.08931922      10.80021681 
C      22.42003705       8.64374532      21.36113808 
C      21.41572561       8.91134741      25.65011444 
C      19.66009177      12.63038853      30.17422243 
C      19.10816200      21.11264205      32.82474040 
C      19.40873759      26.90470663      30.72438025 
C      21.94566593      32.04786504      23.99889186 
C      23.52854259      31.87235515      18.05196051 
C      26.00765140      26.62470161      11.30323506 
C      26.23994245      20.68577350       9.60197195 
C      25.67030681      12.31947414      12.25835843 
C      23.86250659       8.82607539      16.93325052 
Ag      19.05854625      20.17329083      19.99119613 
Ag      16.21733067      20.15773469      19.07334873 
Ag      21.20267969      20.95107371      18.17880957 
Ag      20.93664569      18.15033370      19.05516920 
Ag      19.76217428      23.49832521      17.73313279 
Ag      20.56038640      21.74688178      15.49833241 
Ag      20.23625450      18.95508573      16.29639661 
Au      20.01557059      16.16849950      17.21214714 
Ag      19.04903658      16.09609618      19.96981253 
Ag      18.16761477      16.09792614      22.79172004 
Ag      17.84765517      18.89286319      23.66647029 
Ag      17.61369906      21.71300097      24.53550721 
Ag      18.32427249      23.44623711      22.28724246 
Ag      19.08412161      25.20426051      20.00416488 
Ag      17.60264059      22.67213028      19.56082210 
Ag      18.34317743      20.95375525      17.27893006 
Ag      18.05581540      18.15965370      18.10598437 
Ag      17.16409198      18.14506228      20.91347306 
Ag      16.87136589      20.94370964      21.79561323 
Ag      20.02108064      14.01252906      21.86924546 
Ag      19.08911500      14.02352823      24.69476990 
Ag      18.76778986      16.85198688      25.57560965 
Ag      18.51975346      19.69372792      26.47927428 
Ag      18.23540568      22.51410679      27.31183591 
Ag      18.97063762      24.28901743      25.05984959 
Ag      19.74090507      26.04849823      22.75762380 
Ag      15.54663961      22.46831131      26.39401943 
Ag      16.19117678      24.24966047      24.15009790 
Au      16.93205913      25.93407380      21.86823661 
Ag      17.70485309      27.70277654      19.58285826 
Ag      18.34525648      26.09459208      17.27926353 
Ag      19.12679701      24.32147417      15.04933457 
Au      19.93080566      22.53681517      12.81288625 
Ag      19.57857486      19.72942688      13.51093296 
Ag      19.36432444      16.96816241      14.42955948 
Au      19.11150697      14.14341742      15.35009715 
Ag      18.09295322      14.01167343      18.06316935 
Ag      17.23948329      14.06835858      20.88430322 
Ag      16.36047676      14.07502831      23.72152828 
Ag      15.95803147      16.82981108      24.62961598 
Ag      15.76543694      19.65019991      25.48768934 
Ag      17.36172172      18.95164761      15.32024829 
Ag      17.19386583      16.16707171      16.21921791 
Ag      16.18248855      16.08083978      18.99320763 
Ag      15.38611158      16.10934834      21.84838666 
Au      14.96053070      18.90775867      22.73621714 
Ag      14.77920553      21.67155778      23.64165299 
Ag      15.38659406      23.46176206      21.38442949 
Ag      16.25637305      25.19217629      19.14496106 
Au      16.90190998      23.49248086      16.84288043 
Au      17.73153987      21.78505348      14.59538138 
Ag      14.75429946      22.68919336      18.63200004 
Ag      15.47971914      20.97557387      16.30309396 
Ag      15.23554646      18.14917883      17.15766469 
Ag      14.28998497      18.12138505      19.98391386 
Ag      13.99940603      20.93350139      20.87678092 
Ag      13.39175249      20.17017766      18.14193375 
Au      13.43241156      15.29579281      19.60916859 
Ag      12.54874960      17.43833512      22.22363694 
Ag      12.21765512      20.10245203      23.13774755 
Ag      12.57861028      23.20821461      22.12346392 
Ag      13.31282181      24.94811181      19.99496677 
Ag      14.30986469      24.85441927      16.74065588 
Ag      15.07806691      23.30683667      14.50178877 
Ag      15.33295778      19.99029852      13.54215649 
Ag      15.15134326      17.27205962      14.27028118 
Ag      14.24020119      15.40287649      16.94646294 
Ag      12.41743420      17.50648465      17.87683174 
Ag      11.64461623      19.38904102      20.24114505 
Ag      11.99564919      22.35847472      19.35035699 
Ag      12.92955291      22.32228228      16.34506431 
Ag      13.24549177      19.28491797      15.44276147 
Ag      15.40042950      13.34639137      18.68498301 
Ag      14.58512116      13.35484209      21.57461387 
Ag      13.63007401      15.22585739      23.90637126 
Ag      13.36795964      18.04997723      24.95543195 
Au      13.22720397      20.86759944      25.89163678 
Au      13.46350858      23.79428801      24.90337293 
Ag      14.10945112      25.64149023      22.72268317 
Ag      14.96165576      27.42357588      20.49561933 
Ag      15.69054129      27.44473330      17.47659211 
Au      16.54219677      25.76644557      15.09295822 
Ag      17.45593774      24.02975512      12.75360861 
Ag      17.55350472      21.07503367      11.84061714 
Ag      17.38802225      18.12478248      12.59137684 
Au      17.32175085      15.26957093      13.46463647 
Ag      16.23874490      13.51124054      15.75419768 
Ag      16.80628426      11.74554773      25.61177279 
Ag      16.90936738      14.82524822      26.50286366 
Ag      16.68308417      17.60968621      27.36221851 
Ag      16.38532759      20.38492243      28.24303028 
Ag      15.58729121      23.24675902      29.30953608 
Ag      16.81852121      25.05875415      26.85422219 
Ag      17.59533820      26.76233717      24.60510727 
Ag      18.29827859      28.48655767      22.33851428 
Ag      18.57629795      30.55887352      19.94957707 
Ag      19.79113328      28.56671395      17.69132583 
Au      20.58469345      26.80922173      15.48794056 
Ag      21.24609619      25.13215427      13.17911249 
Ag      21.60529821      23.48579342      10.48851453 
Ag      21.70714828      20.50482746      11.69216108 
Ag      21.49082070      17.71633585      12.59527358 
Ag      21.20732879      14.90097108      13.40472593 
Ag      20.44559131      11.85969959      13.91855138 
Ag      19.95764619      11.98198755      17.11792568 
Ag      19.13033428      12.02126685      19.94330475 
Ag      18.22378018      12.01095222      22.74504501 
Ag      11.40950628      14.38895775      17.62126830 
Ag       9.71989696      18.47086881      22.65092924 
Ag      10.39677626      24.82341491      20.58869343 
Ag      12.47664492      24.76732173      14.28649366 
Ag      13.04305705      18.35203006      12.40845816 
Ag      12.02943971      27.52761479      21.78341105 
Ag      10.70042977      18.90053595      25.83440646 
Ag      12.90524097      11.88280325      19.30717527 
Ag      15.44006372      16.55259279      11.04964756 
Ag      15.01938724      26.25383146      12.65819443 
Ag      14.47946650      26.65298935      25.63640659 
Ag      17.71063860      28.50803690      15.36198482 
Ag      19.41232116      18.88356879      10.44847926 
Ag      17.07217475      11.07496764      17.64526548 
Ag      14.03162072      15.80972289      26.92969617 
S      11.39526771      22.61847390      14.38949050 
S      11.42984267      18.12051029      14.17777618 
S      10.16989004      16.40490152      18.05063915 
S       9.23670857      19.82960042      20.73109886 
S      10.06588209      23.69883724      18.48761575 
S      13.08164352      27.05857983      13.85367334 
S      10.20603035      26.16597529      22.57731380 
S       9.67674827      17.08384709      24.62043944 
S      12.14807018      12.16746062      17.04049552 
S      14.19018637      18.46798884      10.29219688 
S      13.13723235      26.61403071      18.07487282 
S      10.94636475      22.21336693      23.73677049 
S      11.97484297      15.06428612      21.67546170 
S      14.18496788      14.92134955      14.51508685 
S      15.02045855      22.12487008      12.26203319 
S      16.85137030      25.83822951      11.16981895 
S      13.55461255      29.30777703      21.29185024 
S      11.44751212      20.44701165      27.52281314 
S      13.54296381      11.09950733      21.47840416 
S      16.75230462      14.54879751      11.19123981 
S      18.37225955      20.86228799       9.51896822 
S      16.04847792      29.75725952      16.63196713 
S      12.73355839      25.30915547      26.69246099 
S      13.05750328      13.83891488      25.88155908 
S      16.51194402      11.08981213      15.28302675 
S      20.70364628      16.83188721      10.41043733 
S      19.53933302      28.23524530      13.77708170 
S      15.93200022      28.52649168      25.16902446 
S      14.67680877      17.23464431      28.78515626 
S      17.66140399      10.02822045      19.75989587 
S      20.75099506      10.16118112      15.60059951 
S      20.08838631      13.20500099      11.96024902 
S      22.70231226      21.51426015       9.63517421 
S      20.46953243      25.57055891      10.84895666 
S      19.99494204      31.02540762      18.06726972 
S      16.96638222      30.49388717      21.72674359 
S      16.36177543      25.52333766      29.26092328 
S      14.44324764      21.15675245      29.59147865 
S      16.83510902      12.70530874      27.82021148 
S      16.45114769      10.49529129      23.59410843 
C       9.67597348      22.96605552      14.93283389 
C      10.05054902      19.26283313      13.77623352 
C       9.10625151      16.70345911      16.58586620 
C       8.10611147      18.88075692      19.64291786 
C       8.48488089      22.77713631      18.64596783 
C      11.91851296      27.63560172      12.54465291 
C       8.72406530      27.23536603      22.32832110 
C       7.92597707      17.07229609      25.20154802 
C      10.64028120      11.11205548      16.93221747 
C      13.03115783      17.79011671       9.02799512 
C      11.49753081      27.06748644      17.36994968 
C       9.21142351      22.44377284      23.18069308 
C      10.17237164      14.78057487      21.44134755 
C      12.46894630      14.49932949      14.00067712 
C      13.49289013      22.15419595      11.23650476 
C      16.18244365      24.89024347       9.74515056 
C      12.98470843      30.07055257      19.72072550 
C      10.38381997      21.93522123      27.39560985 
C      12.07149012      11.30697168      22.55950543 
C      15.59783708      13.15571657      11.49348073 
C      17.02062365      20.28266252       8.41880979 
C      14.70122000      30.19541455      15.46275770 
C      11.12328364      26.07372338      26.26155997 
C      11.24740378      13.91712627      26.18658721 
C      14.87267408      10.27732278      15.12543872 
C      22.04351597      17.21321540       9.20695592 
C      20.46242426      29.82160191      13.87861201 
C      16.38660599      29.14209184      26.84292685 
C      15.19188152      16.02428261      30.07277749 
C      18.76455173       8.64755970      19.24383978 
C      19.50364006       8.86259115      15.23088238 
C      21.27155573      12.64710876      10.67430592 
C      21.82641958      21.10783248       8.07060356 
C      21.48677269      26.90528479      10.10824041 
C      18.97902723      32.05876193      16.93487496 
C      17.37871181      31.85165802      22.89039250 
C      14.86526512      26.54661705      29.57298656 
C      14.68146515      20.61742608      31.32877482 
C      15.19004864      12.31704465      28.54353288 
C      17.18339389       8.83001837      23.83412583 
H      31.82067316      22.11549462      25.52121855 
H      31.87141151      23.63356240      26.46412170 
H      31.26731781      23.64184777      24.77121266 
H      31.53151555      19.35804747      26.07678367 
H      31.46733219      18.92686179      27.81151671 
H      30.52530114      20.32658351      27.19201493 
H      32.31998558      17.78828630      23.96710994 
H      32.62938356      16.04387871      24.20586023 
H      31.27513659      16.84702921      25.07122146 
H      33.76731180      18.84831569      20.46349003 
H      32.42664848      17.95175717      21.25808668 
H      32.96529841      19.52741220      21.90973870 
H      33.25726041      23.45825189      21.91304285 
H      32.37426637      22.12811360      21.08243425 
H      32.52318718      22.13237920      22.86529259 
H      29.86989207      27.93067532      27.83599323 
H      29.07955987      26.95318913      29.10704635 
H      28.47957099      28.59758605      28.74300247 
H      32.06290422      28.02347932      17.45251225 
H      32.98845893      26.58922001      17.98816726 
H      32.22740642      27.66532392      19.19617547 
H      33.02526458      16.48991874      14.62364659 
H      33.57333783      16.31787756      16.31752403 
H      33.39273366      17.94367998      15.59579658 
H      30.19666265      10.13251329      23.99069624 
H      31.03468978      11.44125148      24.87629119 
H      31.09915988      11.38679741      23.09138217 
H      28.80757216      18.46653181      31.99845286 
H      28.49423751      16.81843302      31.38220744 
H      27.48141204      17.48819014      32.69419423 
H      29.91548162      27.76937288      22.85752692 
H      30.06840129      26.12638179      23.55647139 
H      29.30770829      27.44166369      24.51964270 
H      32.02079737      22.01904971      16.33909914 
H      31.83269803      22.06525104      18.12009565 
H      31.66036690      23.57920147      17.16042998 
H      31.18311815      14.90292628      18.36060601 
H      30.86555582      13.56103404      19.51887136 
H      31.12643992      15.22650762      20.13040747 
H      28.74447372      13.66344730      26.48578397 
H      28.37531693      14.44466291      28.06475810 
H      29.13056924      15.40230583      26.75134857 
H      27.93635164      23.12995463      29.95240065 
H      28.54410096      21.96002470      28.74345544 
H      27.75513107      21.36632498      30.24523057 
H      23.98003051      24.40289719      31.76468901 
H      25.45040448      25.42705382      31.76176431 
H      25.39045683      23.92022777      30.78053029 
H      28.90570120      30.60312743      20.99751760 
H      28.17201025      29.26599054      21.94983542 
H      27.21390684      30.72346019      21.57781631 
H      31.52132319      21.33301275      12.86745736 
H      30.66581643      22.02851642      14.28642187 
H      30.11607972      22.42078274      12.63550122 
H      28.34740332      10.86893724      17.48628133 
H      29.44694908      10.32285470      18.79249278 
H      29.18766964      12.07560298      18.49589209 
H      24.69516579      12.33873475      29.27882201 
H      25.85944689      13.05218307      30.43864220 
H      25.99334705      13.41086408      28.68317688 
H      24.62149631      21.11065922      32.67019989 
H      24.64606911      19.52685861      31.84589689 
H      23.63757549      19.75802954      33.31334594 
H      26.97118086      30.62283412      24.88183993 
H      26.54191688      29.31079306      26.01686703 
H      25.76439311      30.92134793      26.16839629 
H      29.73672015      27.01644214      13.77453796 
H      30.48646909      25.39660196      13.89842434 
H      29.94048159      26.23694503      15.37817854 
H      29.75510326      13.61805370      13.60176949 
H      29.98944415      12.96684028      15.25164726 
H      30.02893620      14.73312389      14.97975275 
H      26.06352232       9.31899117      25.62127490 
H      26.37596751      10.56340534      26.86966366 
H      26.87761925      10.85893667      25.17751576 
H      18.08149193      16.38409810      31.65887132 
H      18.31298787      18.14618205      31.46102612 
H      19.23384852      17.25378118      32.71383686 
H      19.56520638      29.76117265      27.68474951 
H      20.22122296      30.09453911      26.05487435 
H      21.11973666      30.62787975      27.51118648 
H      25.56541004      29.65748295      13.78916751 
H      23.89354150      29.95684060      14.34939397 
H      24.29202174      28.42592457      13.51579193 
H      25.26087377      16.65603360       9.98290443 
H      25.00715565      15.35159782      11.18011216 
H      26.61684901      15.57775961      10.42593169 
H      22.02890006       8.32943452      20.38563913 
H      21.58492381       8.85388737      22.03742748 
H      23.04845205       7.84828478      21.77699421 
H      21.41739221       8.23160726      24.78965479 
H      21.08673861       8.36956385      26.54380746 
H      22.42068761       9.31962757      25.79994781 
H      20.02103915      11.68319670      30.59023841 
H      18.65479355      12.50418285      29.75710694 
H      19.65120753      13.39894450      30.95699317 
H      18.81243721      20.10993552      33.15514246 
H      18.80655866      21.84732520      33.57987823 
H      20.19339454      21.14556823      32.68227970 
H      19.78108540      27.84052734      30.29039262 
H      19.54593328      26.92452013      31.81157726 
H      18.34781265      26.77433010      30.48364062 
H      22.04914019      33.04249123      23.55068958 
H      22.93366981      31.60129438      24.15728214 
H      21.42246633      32.13478833      24.95840562 
H      24.07478178      31.68193879      17.12023058 
H      23.86694338      32.81899448      18.48833556 
H      22.45151303      31.91509908      17.85464314 
H      26.28354172      26.50780084      10.24908616 
H      26.84315664      26.32746706      11.94678765 
H      25.74804380      27.67221240      11.49632860 
H      26.93973146      21.24843560       8.97355727 
H      25.21272072      20.84611401       9.25582435 
H      26.48914638      19.61835860       9.56436212 
H      25.74629736      12.87592938      11.31684614 
H      25.69993460      11.24441201      12.04814897 
H      26.49884661      12.59755881      12.91939798 
H      24.53784875       8.28877121      16.25773033 
H      22.85946026       8.87824178      16.49470210 
H      23.82580143       8.30746320      17.89886129 
H       9.14691807      23.49100604      14.12961696 
H       9.66661821      23.56747547      15.84833181 
H       9.18150323      22.00573271      15.12407100 
H       9.50018581      18.86740735      12.91514669 
H      10.42330663      20.26924146      13.55726288 
H       9.38245181      19.30348757      14.64527757 
H       8.36157762      15.90278352      16.51633278 
H       9.70209692      16.74801841      15.66779055 
H       8.59279636      17.66209324      16.73091398 
H       7.98644147      19.44642414      18.71063404 
H       7.13265011      18.78963829      20.13752796 
H       8.51234217      17.88926050      19.41482232 
H       8.35423029      22.17963676      17.73534421 
H       7.65961644      23.49282380      18.73006026 
H       8.49844775      22.11014916      19.51483343 
H      12.30767210      28.57151596      12.12695617 
H      10.94105488      27.82216784      13.00436126 
H      11.80989836      26.89833308      11.74417439 
H       7.82778258      26.62449257      22.48700133 
H       8.69650240      27.66734675      21.32395536 
H       8.75044431      28.04113722      23.07109567 
H       7.35028089      16.40415762      24.55058568 
H       7.48433033      18.07250434      25.17875946 
H       7.90549331      16.68727642      26.22770887 
H      10.12905442      11.33828368      15.98925980 
H       9.95790734      11.29161497      17.76774221 
H      10.95148571      10.06097794      16.93391394 
H      13.60568392      17.54826663       8.12628393 
H      12.28975422      18.56208892       8.79127376 
H      12.51973207      16.89227550       9.38605254 
H      11.65801507      27.46421262      16.36070716 
H      11.04248502      27.82992345      18.01317876 
H      10.85370263      26.18152620      17.33350312 
H       8.97006431      23.50911733      23.27860744 
H       8.55954918      21.84996951      23.83295935 
H       9.07282576      22.11864846      22.14492941 
H      10.01424631      13.72555630      21.18841350 
H       9.79783725      15.41644637      20.63121505 
H       9.67089528      15.02834027      22.38439710 
H      12.47490461      14.31923150      12.91894446 
H      11.79068531      15.32827827      14.23063082 
H      12.16057361      13.59306546      14.53462666 
H      13.55483910      21.33917702      10.50640669 
H      13.43632792      23.12223158      10.72495037 
H      12.61454409      22.02430001      11.87852112 
H      15.54323385      25.54463645       9.14230324 
H      15.61792209      24.01167133      10.07533071 
H      17.03904233      24.55766139       9.14572393 
H      13.78111151      30.74444664      19.38113736 
H      12.06953498      30.64303121      19.90725121 
H      12.80854357      29.31429542      18.94802823 
H      10.87510539      22.74114947      27.95481075 
H       9.41192345      21.70545239      27.84699497 
H      10.25898026      22.24033004      26.34954650 
H      11.31651162      10.56052880      22.28939252 
H      11.65149680      12.31566732      22.47994198 
H      12.40228766      11.14242639      23.59252737 
H      15.06789170      12.93345704      10.56033702 
H      14.88538810      13.39789417      12.28996781 
H      16.19908286      12.29015694      11.79797668 
H      17.45702338      19.76231491       7.55902923 
H      16.47599058      21.16858255       8.07048790 
H      16.32570162      19.61830027       8.94403388 
H      15.07114775      30.94440047      14.75353960 
H      13.87829175      30.62422868      16.04735387 
H      14.33674882      29.31657895      14.91884059 
H      10.33073551      25.37362037      26.55173354 
H      11.04556240      26.27836218      25.18833352 
H      11.01887039      27.00454026      26.83088986 
H      10.77720941      13.11245412      25.60844673 
H      10.82651744      14.87900708      25.87269015 
H      11.05708158      13.75691678      27.25375145 
H      14.55168215      10.37832319      14.08161346 
H      14.12539014      10.74370716      15.77723867 
H      14.97326391       9.21485783      15.37377209 
H      21.61242318      17.25920451       8.20033394 
H      22.77546935      16.39790135       9.25108402 
H      22.54146485      18.16123139       9.43954269 
H      19.86915714      30.59550692      13.37718197 
H      21.41709151      29.69595366      13.35414476 
H      20.65094477      30.11342198      14.91779680 
H      17.15981839      29.90945515      26.71738662 
H      16.77346691      28.33942236      27.48084950 
H      15.50272140      29.59284915      27.30847319 
H      14.30593536      15.48816664      30.43175506 
H      15.63509117      16.58715562      30.90300885 
H      15.92666869      15.30855443      29.68716545 
H      18.15627598       7.86915268      18.76882803 
H      19.23865378       8.23798810      20.14379006 
H      19.53991244       8.98588570      18.54738811 
H      19.81556390       8.33501760      14.32243266 
H      18.50831773       9.29861359      15.08997972 
H      19.48134137       8.15753983      16.07015244 
H      21.31479860      13.43180453       9.90918024 
H      20.89267149      11.72051766      10.22797868 
H      22.26972913      12.47919458      11.09401481 
H      22.09743342      21.85898751       7.32007994 
H      20.74048220      21.09605023       8.21507925 
H      22.16351143      20.12039321       7.73389318 
H      21.34130295      26.89442554       9.02194534 
H      22.54919765      26.77712627      10.34370448 
H      21.12505451      27.85692123      10.51620759 
H      19.51418706      32.15116156      15.98253400 
H      18.86593807      33.05163110      17.38464277 
H      17.99477604      31.60893648      16.76225847 
H      17.02540806      32.79687199      22.46280494 
H      18.45678872      31.90551110      23.07875349 
H      16.84308319      31.64788157      23.82546843 
H      15.10973072      27.59187263      29.35034024 
H      14.60219467      26.45289138      30.63276533 
H      14.02473007      26.22665508      28.94828230 
H      14.44947324      19.54626896      31.37018028 
H      13.97988437      21.16950607      31.96465571 
H      15.70909518      20.79238927      31.66634257 
H      15.16324090      11.24666117      28.77701256 
H      14.37946118      12.57184084      27.85178803 
H      15.07690619      12.89323034      29.46933800 
H      17.31172610       8.38471400      22.84020037 
H      16.48281914       8.22362282      24.41981072 
H      18.14827635       8.88579455      24.34960946 
