646
Properties=species:S:1:pos:R:3 i=97 optimized=T E=-10428.311723271 pbc="F F F" jobid=246_80-Ag-89_8-000006-PBE
Ag      21.85351003      20.15015353      20.91709240 
Ag      24.67849846      20.17450120      21.83120461 
Ag      20.44574768      22.66785057      20.45467583 
Ag      19.71007941      20.94100990      22.74338389 
Ag      20.00483417      18.11569012      21.87030164 
Au      21.12076794      23.47693247      23.17301278 
Ag      20.36539275      21.72232034      25.44607386 
Ag      20.68237675      18.92532497      24.62674817 
Ag      20.92075079      16.11029549      23.73260063 
Ag      21.87751773      16.08306549      20.94365556 
Ag      22.75219286      16.08893190      18.10851322 
Au      23.07992660      18.86095640      17.23057139 
Ag      23.33261536      21.70159348      16.37006164 
Ag      22.61713023      23.45458693      18.59899400 
Ag      21.82825232      25.14967701      20.87336740 
Ag      23.30976571      22.67153486      21.35663351 
Ag      22.56864925      20.95261399      23.64595013 
Au      22.84626438      18.14476520      22.80570464 
Ag      23.76907714      18.11833568      19.99623968 
Ag      24.04623826      20.92047606      19.10885188 
Ag      20.91461990      13.99665033      19.01273993 
Ag      21.84397570      14.02127111      16.20448449 
Ag      22.15970380      16.82704212      15.31059080 
Ag      22.40845438      19.66114126      14.43048083 
Ag      22.69418499      22.49603127      13.60351600 
Au      21.98242045      24.29066241      15.82923774 
Ag      21.18927402      26.01717123      18.14043435 
Ag      20.45372768      27.74253934      20.46660124 
Ag      25.44086405      22.45333940      14.54275157 
Ag      24.81146304      24.23758483      16.73680422 
Ag      23.99265821      25.92535910      19.01507917 
Au      23.20169012      27.62799654      21.30629851 
Ag      22.55107812      26.04852495      23.63874629 
Ag      21.78275791      24.28273326      25.85704181 
Ag      21.02232475      22.53304851      28.12813965 
Ag      21.35815273      19.74174322      27.40204178 
Ag      21.60876678      16.92212280      26.47988795 
Ag      21.85703460      14.08663607      25.58181153 
Ag      22.82660106      14.00115378      22.84616424 
Ag      23.69018300      14.05676501      20.00920940 
Ag      24.55470063      14.05910215      17.17496317 
Ag      24.95645598      16.78675066      16.25824612 
Ag      25.19324514      19.61650682      15.42107851 
Ag      23.54748381      18.94312230      25.60623830 
Ag      23.72149284      16.13259649      24.66904649 
Au      24.76539839      16.04496657      21.90318174 
Ag      25.54916925      16.05682281      19.07097632 
Ag      25.96481891      18.84792299      18.14968005 
Ag      26.13012745      21.65079225      17.26473711 
Ag      25.50940856      23.45887535      19.51580416 
Ag      24.66577428      25.16651542      21.75226779 
Ag      24.01683831      23.51289758      24.10007433 
Ag      23.18362815      21.79138206      26.31717990 
Ag      26.14249055      22.69085655      22.27556437 
Ag      25.40201584      20.96880276      24.58333113 
Ag      25.67909315      18.14215957      23.73447239 
Ag      26.60390387      18.10099543      20.91793950 
Ag      26.87459069      20.91625158      20.01757913 
Ag      27.50584186      20.17192942      22.75871592 
Ag      27.52822415      15.26457224      21.28793168 
Ag      28.38110326      17.34053476      18.71707657 
Ag      28.63900588      19.96911014      17.76755304 
Ag      28.32878546      23.18186823      18.87930765 
Ag      27.60806988      24.93511168      20.94151666 
Ag      26.57926613      24.87101721      24.16312577 
Ag      25.82704968      23.31947075      26.39903359 
Ag      25.57269704      20.04350416      27.34266787 
Ag      25.74205928      17.32926832      26.63131152 
Ag      26.69760418      15.40229754      23.97525322 
Ag      28.46745643      17.52273831      23.02622398 
Ag      29.20772216      19.37873336      20.63817187 
Ag      28.90057256      22.34052708      21.60254034 
Ag      27.94129017      22.31378295      24.57372389 
Ag      27.65892784      19.29456692      25.46005852 
Ag      25.52924301      13.32267800      22.21797897 
Ag      26.33488610      13.27887336      19.32194258 
Ag      27.28070269      15.13893398      17.01897264 
Ag      27.54381972      17.93868020      15.95517855 
Ag      27.75103401      20.78635999      15.01488021 
Ag      27.62182076      23.73346270      16.01958183 
Ag      26.82033320      25.63077164      18.20959511 
Ag      25.93196666      27.42840031      20.43683278 
Ag      25.16440378      27.42676230      23.47121456 
Ag      24.34030047      25.75995836      25.83154677 
Ag      23.47328770      24.06492808      28.11335422 
Ag      23.41614071      21.14064689      29.04773841 
Ag      23.52741749      18.17834552      28.36528004 
Ag      23.70644068      15.30951422      27.44437887 
Ag      24.69566387      13.50172238      25.12269851 
Ag      24.13015792      11.72899469      15.29124081 
Ag      24.00551296      14.80318519      14.37232212 
Ag      24.26354840      17.59392621      13.50144592 
Au      24.51674199      20.41084186      12.71403190 
Ag      25.36094547      23.21773250      11.56740884 
Ag      24.12875527      25.01783466      14.01302710 
Ag      23.34204471      26.73843383      16.28614467 
Ag      22.63167718      28.48572499      18.56690734 
Ag      22.38634673      30.53242712      21.01402850 
Ag      21.14738739      28.54535771      23.19285392 
Ag      20.33882138      26.80300096      25.41531388 
Ag      19.67564486      25.07266140      27.71251020 
Ag      19.28498807      23.43445181      30.43414379 
Ag      19.26958708      20.44357409      29.24676041 
Ag      19.45106129      17.66316961      28.30335795 
Ag      19.75480366      14.84740618      27.43926141 
Ag      20.42743909      11.80745078      26.96363494 
Au      20.95902175      12.00554025      23.72840073 
Ag      21.83232931      12.00082988      20.93991723 
Ag      22.75729715      11.98889322      18.16534001 
Au      29.58904318      14.38819697      23.36449242 
Au      31.24706380      18.41833374      18.14383535 
Au      30.60306363      24.83464439      20.21542639 
Ag      28.45861470      24.75233503      26.56262480 
Ag      27.83852144      18.34952163      28.50436240 
Au      28.89017294      27.60524787      18.81144326 
Ag      30.16335382      18.76240341      14.92479529 
Ag      28.00020689      11.86104303      21.69648633 
Ag      25.37920673      16.52863496      29.93583933 
Ag      25.94794288      26.18420845      28.24866833 
Ag      26.41675171      26.57977918      15.34194379 
Ag      23.07732763      28.49927077      25.58856136 
Au      21.60946972      18.91999372      30.63125024 
Ag      23.85050009      11.04778897      23.28060665 
Ag      26.89152371      15.70701543      13.98586509 
S      29.56589094      22.61680980      26.45939786 
S      29.46182009      18.11286664      26.74161673 
S      30.71000123      16.38425904      22.82333218 
S      31.60583080      19.81935072      19.99901442 
S      30.90444659      23.72951801      22.26760708 
S      27.82627538      27.03552076      26.99886713 
S      30.58570799      26.07033617      18.19851327 
S      31.17977620      17.01165130      16.24939847 
S      28.74577235      12.26468866      23.95937349 
S      26.67217275      18.44842674      30.61170000 
S      27.70108925      26.66653848      22.79102822 
S      29.66538257      22.17217863      17.01273074 
S      28.94784998      14.94265969      19.20923728 
S      26.63030555      14.94574767      26.43754446 
S      25.94682598      22.14760899      28.65908815 
S      24.13079370      25.81508843      29.76186071 
S      27.27854080      29.22586874      19.30604936 
S      29.43744680      20.29408907      13.23690850 
S      27.34867340      11.01214077      19.56266223 
S      24.06041768      14.53614486      29.78506000 
S      22.56578039      20.94688266      31.38353887 
S      24.78566380      29.71522535      24.36889792 
S      28.10645250      25.30043734      14.15076165 
S      27.82778296      13.72542666      15.04850102 
S      24.38700704      11.09729602      25.65097578 
S      20.52045462      16.84081256      30.39437151 
S      21.29647096      28.21914808      27.21409356 
S      25.01136508      28.50311369      15.82135883 
S      26.27439988      17.10957709      12.10822991 
S      23.39784015      10.06890490      21.10360612 
S      20.16511022      10.17814763      25.21206765 
S      20.78042609      13.14002435      28.92506625 
S      18.19620382      21.45716949      31.26435526 
S      20.47314273      25.47917326      30.03805331 
S      20.91099889      31.01225995      22.85650513 
S      23.96680403      30.49632910      19.20819681 
S      24.58384877      25.49191012      11.60842928 
S      26.42714894      21.06926880      11.31094247 
S      24.06639135      12.66560467      13.07691078 
S      24.54851057      10.48978220      17.29996817 
C      31.26294939      22.94826356      25.84096805 
C      30.84245408      19.24945043      27.15939090 
C      31.77714114      16.73815206      24.27320915 
C      32.75339613      18.88855954      21.08671025 
C      32.46256858      22.77855649      22.07483860 
C      28.98720312      27.65846051      28.28996345 
C      32.12577474      27.07620524      18.26192839 
C      32.92091640      16.94981985      15.64765630 
C      30.24055916      11.19990303      24.12950511 
C      27.84027741      17.78757153      31.87739840 
C      29.34254753      27.17997918      23.44952713 
C      31.47496074      22.45573705      17.20083642 
C      30.76285094      14.67455626      19.36158837 
C      28.28093472      14.48754455      27.11310010 
C      27.50508946      22.09801791      29.63942253 
C      24.79937932      24.81808249      31.15239866 
C      27.93271500      30.13200525      20.76436074 
C      30.56034289      21.74559784      13.32596705 
C      28.82548649      11.14649625      18.47701223 
C      25.23683512      13.14405510      29.54892907 
C      23.94068926      20.46348340      32.50042325 
C      26.08355553      30.16305250      25.58959126 
C      29.71130137      26.14923922      14.43220986 
C      29.64090603      13.77270884      14.75367971 
C      26.02524256      10.29438447      25.86439906 
C      19.19573088      16.92622298      31.66827166 
C      20.38607196      29.81537831      27.09990655 
C      24.59408084      29.13893426      14.14474543 
C      25.74337977      15.88742206      10.83921162 
C      22.30914905       8.64392721      21.51974053 
C      21.41991299       8.87366803      25.52519710 
C      19.55161028      12.57555365      30.16720045 
C      19.05806491      21.05966774      32.83994754 
C      19.47365112      26.84173690      30.75502671 
C      21.88783811      32.05252259      24.01640810 
C      23.56042185      31.88654824      18.08195601 
C      26.06074603      26.53833416      11.28579470 
C      26.12083729      20.45301395       9.61316095 
C      25.69522709      12.23775530      12.33700731 
C      23.85737884       8.80602434      17.06458346 
Ag      19.05750741      20.14963699      20.00164561 
Ag      16.22658465      20.15374252      19.08323616 
Au      21.20181010      20.94155414      18.18761801 
Ag      20.92226698      18.10701734      19.04164842 
Ag      19.77274275      23.47756968      17.72216192 
Ag      20.55804262      21.73460580      15.47830701 
Ag      20.25326389      18.92878555      16.29099315 
Ag      19.99930227      16.10344177      17.18143026 
Ag      19.07243836      16.06504061      19.97367528 
Ag      18.16963429      16.07925725      22.80702007 
Ag      17.86206625      18.86587201      23.69464682 
Ag      17.59326626      21.67060155      24.56461877 
Ag      18.28806691      23.43696287      22.30169451 
Ag      19.06166758      25.16455439      20.00774712 
Ag      17.59904925      22.66074150      19.54735527 
Ag      18.33697006      20.94881478      17.26874513 
Au      18.07313758      18.12899634      18.10154561 
Au      17.17638990      18.10415411      20.92337169 
Ag      16.88639833      20.91523680      21.80805377 
Ag      20.02144927      13.99967368      21.86595246 
Ag      19.08279127      14.02042930      24.68801436 
Au      18.78891482      16.80507521      25.60530863 
Ag      18.54965060      19.68084985      26.49683379 
Ag      18.25528729      22.46565512      27.35665363 
Ag      18.95335774      24.25588176      25.04959237 
Ag      19.72267193      26.03079572      22.74830818 
Ag      15.51674917      22.42652099      26.40984813 
Ag      16.12671775      24.21964718      24.18669223 
Ag      16.91920994      25.92206993      21.86758012 
Ag      17.70169220      27.67828237      19.59280079 
Ag      18.34624826      26.05267564      17.26973203 
Ag      19.12622804      24.26544561      15.03591168 
Ag      19.95283955      22.51848560      12.77999367 
Ag      19.62300007      19.71052693      13.54305277 
Ag      19.34910450      16.93572512      14.42923432 
Ag      19.09097690      14.11177783      15.32894736 
Ag      18.10436312      13.99431338      18.06060094 
Ag      17.25564502      14.03369018      20.88744374 
Ag      16.36623583      14.03894869      23.71899297 
Ag      15.97747929      16.77669153      24.65306520 
Ag      15.75226274      19.61104136      25.52862335 
Ag      17.35867627      18.93477628      15.33847361 
Ag      17.20891947      16.14313815      16.23868069 
Ag      16.16736120      16.04481162      19.00273369 
Ag      15.38942272      16.05288829      21.84866412 
Ag      14.98512786      18.85916439      22.74194093 
Ag      14.80985907      21.63676003      23.67471671 
Ag      15.41714848      23.45386406      21.41119123 
Ag      16.25811084      25.16179577      19.15288525 
Ag      16.89587663      23.49707359      16.79636214 
Ag      17.73202546      21.75741790      14.59020842 
Ag      14.76034673      22.67568330      18.64259818 
Ag      15.48580476      20.97601625      16.33797175 
Ag      15.21662916      18.13821712      17.18145270 
Au      14.28538873      18.09823517      20.00202415 
Au      14.01931136      20.93889597      20.91249695 
Ag      13.37760609      20.16764883      18.16321374 
Au      13.41685488      15.23470261      19.61088977 
Ag      12.53251204      17.34808180      22.21385678 
Ag      12.27605625      20.00285224      23.16217116 
Ag      12.61206602      23.19411755      22.09757236 
Ag      13.33920585      24.94744935      19.99500659 
Ag      14.33441852      24.82081774      16.72698848 
Ag      15.04407173      23.26445455      14.47716990 
Ag      15.36386572      20.06660675      13.55038488 
Ag      15.15406166      17.34382200      14.30805072 
Ag      14.21374547      15.37553942      16.95203416 
Ag      12.40283728      17.48898790      17.92402357 
Ag      11.67153075      19.35959416      20.31117490 
Ag      11.97884630      22.34733042      19.38671897 
Ag      12.92251477      22.30905663      16.36689317 
Ag      13.25072943      19.32114644      15.45707834 
Ag      15.40950993      13.32127207      18.69412907 
Ag      14.59967843      13.28287974      21.57435865 
Ag      13.65688929      15.12438974      23.90534779 
Au      13.39655157      17.95347323      24.91479141 
Ag      13.19798710      20.76995815      25.93808876 
Ag      13.30031132      23.69223024      24.94173108 
Ag      14.10797293      25.61711183      22.73056123 
Ag      14.95778443      27.40419226      20.45642623 
Ag      15.70395371      27.35979819      17.43013398 
Ag      16.57417543      25.70778370      15.04563105 
Ag      17.41608319      23.94107431      12.75601743 
Au      17.67341714      21.03500654      11.88802325 
Ag      17.38493406      18.17448717      12.59580935 
Ag      17.21613021      15.33262106      13.47846014 
Ag      16.25992537      13.51317872      15.79666361 
Ag      16.71564799      11.67857788      25.55359149 
Ag      16.91664356      14.76821687      26.53344119 
Au      16.73605776      17.56232948      27.39657926 
Ag      16.42685447      20.35503298      28.29030413 
Ag      15.57186845      23.23999750      29.32160001 
Au      16.86424320      24.99356021      26.86807978 
Ag      17.58398477      26.72132194      24.60962125 
Ag      18.29580686      28.46284976      22.35940013 
Ag      18.59003301      30.55566351      19.96903584 
Au      19.80569340      28.50469573      17.73120003 
Ag      20.55578417      26.80435623      15.46872923 
Ag      21.26633140      25.06528695      13.20161608 
Ag      21.62189174      23.51291366      10.47531405 
Ag      21.74897722      20.45624621      11.70308490 
Ag      21.51023644      17.66691707      12.60608307 
Ag      21.19316673      14.88569906      13.46252563 
Ag      20.53360785      11.82836961      13.96666966 
Ag      19.97064569      11.97782369      17.13891274 
Ag      19.12554414      11.99885740      19.94384610 
Ag      18.17295789      11.97863759      22.74872841 
Ag      11.34894971      14.47945565      17.59137383 
Ag       9.73429964      18.47573444      22.68774866 
Ag      10.44610896      24.86032290      20.75287088 
Ag      12.43751858      24.75122592      14.33918112 
Ag      13.03485462      18.34953924      12.45029468 
Ag      12.05021144      27.54406886      21.90777102 
Ag      10.72752106      18.62896832      25.89971452 
Ag      12.85732932      11.94063267      19.18428199 
Ag      15.49614290      16.54761649      11.02504183 
Ag      15.01542601      26.08691160      12.59920131 
Ag      14.52206458      26.54587057      25.58618116 
Ag      17.80357807      28.49550851      15.38288029 
Ag      19.42798759      18.88937054      10.40293066 
Ag      17.07665451      11.04057565      17.64361484 
Ag      14.00922771      15.82005653      26.92956358 
S      11.28069004      22.64965415      14.50782429 
S      11.42977172      18.12545364      14.22604784 
S      10.11568197      16.48375832      18.10906450 
S       9.31923477      19.98000688      20.85510408 
S      10.07132630      23.77704707      18.63851147 
S      13.16978670      26.99556527      13.85748874 
S      10.29155870      26.14886983      22.78288875 
S       9.58889139      16.96949425      24.55843525 
S      12.07628464      12.27822706      16.92618825 
S      14.15378046      18.42379412      10.32273250 
S      13.14136077      26.58998516      18.05747331 
S      11.23383574      22.18916258      23.94272230 
S      11.98234591      14.96409164      21.68284028 
S      14.28122733      14.95568061      14.50134835 
S      14.82226135      22.11808241      12.22902247 
S      16.79823686      25.65250145      11.05990367 
S      13.58131209      29.28642742      21.32601822 
S      11.50182162      20.09779311      27.63282806 
S      13.53649291      11.04658901      21.30256760 
S      16.84082855      14.56858255      11.14171195 
S      18.29952685      20.86647029       9.52112052 
S      16.07911967      29.67667766      16.63096809 
S      12.85267415      25.26757830      26.80191899 
S      13.07331300      13.80502906      25.92690890 
S      16.51435933      11.10128811      15.28430088 
S      20.74574950      16.85990429      10.38483445 
S      19.54650763      28.22994455      13.70736901 
S      15.86327257      28.48246585      24.98830622 
S      14.74067427      17.24826010      28.77434269 
S      17.65817409      10.00677246      19.76221078 
S      20.77468350      10.13350203      15.65736272 
S      20.10331086      13.17376602      12.02620647 
S      22.63694912      21.51445629       9.61789973 
S      20.47755271      25.57422702      10.91327106 
S      20.00502802      30.96088425      18.06330030 
S      16.97525570      30.48143800      21.73269348 
S      16.41325109      25.49537086      29.26010687 
S      14.44749219      21.14389849      29.59009146 
S      16.82047967      12.60974016      27.76548515 
S      16.37029871      10.44386916      23.52738861 
C       9.59166498      23.01672354      15.12300312 
C      10.04948522      19.26231764      13.80701994 
C       9.05856744      16.84011550      16.65247144 
C       8.14367701      19.10972210      19.74457785 
C       8.47305085      22.89016482      18.81849199 
C      12.02170027      27.64639601      12.56843724 
C       8.77262560      27.18352052      22.62342580 
C       7.83306550      17.04197680      25.11753902 
C      10.56453829      11.22988316      16.80331066 
C      12.97699380      17.68985165       9.10657612 
C      11.50603349      27.05945852      17.35301697 
C       9.43090902      22.51528949      23.75834248 
C      10.17835579      14.69149604      21.44289496 
C      12.62396001      14.50296722      13.83737067 
C      13.17259844      22.06230094      11.41847531 
C      16.07260384      24.62412121       9.72185658 
C      12.95329281      30.03940693      19.77201595 
C      10.36852418      21.54322493      27.65127847 
C      12.08146692      11.18297954      22.41683186 
C      15.68057454      13.16358343      11.38054243 
C      16.88233127      20.30206529       8.50389443 
C      14.75262707      30.13807129      15.44687742 
C      11.22726294      26.07880115      26.52927173 
C      11.25607496      13.87705403      26.18609385 
C      14.86195817      10.31902421      15.10306656 
C      22.10644191      17.25153564       9.20896682 
C      20.45311921      29.82784169      13.82271245 
C      16.29137417      29.18845371      26.63366152 
C      15.27444817      16.05754743      30.06941229 
C      18.77426148       8.63293778      19.25563155 
C      19.51614920       8.85684606      15.24665010 
C      21.28698206      12.66186520      10.72026433 
C      21.73071444      21.13947611       8.06248015 
C      21.50902860      26.93933609      10.24950388 
C      18.99177589      31.96307630      16.90388687 
C      17.37145100      31.83505082      22.90649816 
C      14.96544416      26.59134782      29.53646182 
C      14.64704808      20.62812194      31.34034466 
C      15.19648886      12.23974999      28.54424488 
C      17.09660749       8.77717642      23.77970597 
H      31.73145878      21.98500420      25.60439302 
H      31.83874924      23.44562668      26.62964449 
H      31.24399834      23.57334910      24.94201800 
H      31.54078900      19.25622040      26.31340524 
H      31.35856750      18.87397060      28.05000746 
H      30.47684238      20.26721252      27.33458586 
H      32.26552982      17.70276890      24.08690245 
H      32.53907319      15.95583761      24.35962664 
H      31.18313578      16.80060202      25.19162012 
H      33.72903321      18.80874138      20.59472814 
H      32.36122761      17.89247644      21.31787377 
H      32.85924055      19.46461840      22.01438499 
H      33.30311579      23.47585083      21.98843822 
H      32.42103462      22.12271252      21.19882960 
H      32.58401397      22.17262876      22.98137983 
H      29.94927259      27.87867688      27.81291255 
H      29.13628244      26.92676371      29.08898025 
H      28.57116027      28.58055110      28.71234315 
H      32.09205927      27.79237191      17.43251485 
H      32.97770021      26.39886707      18.13172254 
H      32.21606814      27.61008761      19.21192264 
H      32.91347490      16.46828006      14.66254542 
H      33.51229492      16.34699751      16.34620971 
H      33.35418010      17.95041009      15.56424537 
H      29.90019161      10.16128531      24.21761466 
H      30.77386324      11.48965980      25.04207195 
H      30.90540616      11.29719477      23.26672089 
H      28.58612197      18.56043406      32.09663298 
H      28.34602832      16.88253354      31.52922391 
H      27.27268825      17.56125324      32.78748149 
H      29.76971323      27.93054764      22.77465162 
H      30.00578910      26.30930004      23.49893355 
H      29.19401782      27.60142932      24.45028049 
H      31.99808518      21.88435131      16.42507871 
H      31.80298235      22.11977656      18.19016810 
H      31.66922487      23.52725649      17.08087301 
H      31.22982845      14.93828737      18.40600159 
H      30.94006122      13.61832100      19.59554005 
H      31.16253160      15.30256422      20.16508138 
H      28.60142550      13.55666077      26.63200033 
H      28.18455714      14.34437713      28.19575829 
H      29.00012762      15.28789591      26.90683379 
H      27.60073563      23.04375080      30.18574746 
H      28.36139227      21.97176721      28.96743459 
H      27.44345013      21.25718990      30.34001296 
H      23.94500019      24.50780979      31.76683546 
H      25.47705848      25.43606236      31.75159021 
H      25.32133645      23.92542764      30.78986750 
H      28.81108664      30.71662995      20.47073118 
H      28.18289335      29.45016889      21.58386420 
H      27.12940627      30.80537760      21.08949122 
H      31.55089761      21.46504338      12.95168276 
H      30.63604291      22.13209600      14.34802422 
H      30.13093756      22.52511113      12.68435270 
H      28.49103340      10.93577848      17.45350722 
H      29.57126702      10.40444280      18.78219535 
H      29.25679286      12.15293008      18.50805379 
H      24.64175248      12.25719164      29.29793895 
H      25.78394669      12.96885083      30.48174689 
H      25.93742697      13.34395191      28.73081320 
H      24.44690144      21.38950280      32.79998383 
H      24.65616993      19.80448686      31.99574058 
H      23.52935400      19.96861129      33.38696601 
H      26.89884453      30.65101044      25.04180096 
H      26.47557988      29.27859220      26.10387940 
H      25.66606074      30.86486995      26.32004547 
H      29.70723096      27.10962746      13.90456213 
H      30.50446028      25.51180430      14.02315891 
H      29.89532519      26.31273550      15.49912135 
H      29.83712499      13.61209713      13.68763176 
H      30.09540834      12.96045761      15.33379979 
H      30.07406713      14.72720722      15.07163049 
H      25.93568702       9.22685175      25.63421085 
H      26.32443411      10.41719610      26.91235607 
H      26.78226162      10.75220743      25.21869100 
H      18.55209459      16.04955158      31.52465570 
H      18.59827113      17.83854904      31.56746430 
H      19.65362290      16.88535864      32.66290094 
H      19.45612030      29.71496973      27.67209613 
H      20.14698597      30.07272279      26.06205153 
H      21.00201778      30.60577488      27.54396079 
H      25.48667916      29.60669185      13.71363548 
H      23.80694219      29.89406963      14.25683846 
H      24.23923223      28.34112597      13.48282100 
H      25.31476175      16.44437701       9.99725200 
H      24.99235160      15.19341523      11.23332410 
H      26.61934747      15.32699357      10.49304977 
H      21.91493169       8.23591950      20.58121063 
H      21.47424620       8.94706628      22.16054754 
H      22.90523634       7.87615055      22.02624355 
H      21.48629942       8.23628206      24.63577398 
H      21.07530663       8.27600680      26.37718830 
H      22.40044233       9.31156582      25.74215462 
H      19.88228550      11.61257017      30.57281905 
H      18.55354201      12.47202558      29.72669154 
H      19.53324293      13.32062274      30.97172946 
H      18.75040509      20.05596999      33.15603351 
H      18.74803062      21.78938600      33.59648706 
H      20.14578533      21.08615656      32.71548080 
H      19.85724411      27.77905610      30.33404936 
H      19.61218043      26.84365274      31.84221142 
H      18.41099841      26.72895189      30.51327108 
H      22.01061394      33.04526361      23.56884720 
H      22.86827819      31.60719383      24.21856126 
H      21.32420596      32.14401359      24.95234377 
H      24.10825095      31.71794949      17.14681764 
H      23.89745388      32.82316922      18.54048132 
H      22.48447734      31.93558124      17.88091891 
H      26.35866164      26.40101614      10.24023112 
H      26.88777751      26.27131502      11.95296331 
H      25.77889523      27.58526341      11.44875625 
H      26.84345261      20.93441308       8.94348074 
H      25.09900009      20.67303993       9.28427950 
H      26.29381779      19.36989822       9.62532036 
H      25.79560354      12.78261780      11.39105154 
H      25.71072338      11.16015561      12.13879711 
H      26.51792009      12.50878686      13.00806886 
H      24.54599214       8.23117030      16.43486720 
H      22.86571606       8.84039995      16.59983266 
H      23.79339028       8.34167980      18.05610611 
H       9.03614115      23.54885677      14.34273596 
H       9.62681017      23.61654901      16.03888136 
H       9.09502544      22.06129645      15.33256350 
H       9.53437028      18.88682672      12.91590326 
H      10.41362153      20.28083208      13.63349286 
H       9.35165637      19.26732561      14.65338794 
H       8.28031898      16.07214498      16.58062853 
H       9.65282365      16.86334270      15.73252848 
H       8.58763977      17.81894692      16.80591110 
H       8.03809397      19.70795736      18.83130635 
H       7.17093439      19.03563165      20.24340212 
H       8.51326105      18.11183246      19.48395367 
H       8.32302981      22.28031020      17.91917635 
H       7.66442494      23.62553900      18.89507365 
H       8.47931779      22.24041779      19.70016126 
H      12.46677446      28.54889227      12.13360982 
H      11.07183956      27.90546963      13.05047173 
H      11.84037960      26.91249890      11.77811118 
H       7.89984158      26.54696345      22.80974544 
H       8.68967561      27.63310786      21.62992903 
H       8.81325834      27.97547778      23.38026257 
H       7.21943296      16.46623379      24.41503536 
H       7.46412608      18.07045102      25.16532977 
H       7.77032077      16.58637050      26.11266634 
H      10.04551798      11.48004561      15.87072920 
H       9.88985357      11.39006007      17.64896707 
H      10.87345004      10.17841595      16.77704684 
H      13.53086682      17.44865555       8.19187677 
H      12.20683274      18.43600527       8.87900444 
H      12.50209094      16.78411251       9.49411135 
H      11.67056238      27.45859956      16.34546948 
H      11.05560152      27.82328650      17.99762941 
H      10.85560938      26.17857730      17.31385352 
H       9.27334692      23.59961357      23.78842294 
H       8.90367576      22.02987244      24.58797748 
H       9.07851045      22.10495487      22.80547442 
H      10.01794532      13.64287091      21.16588374 
H       9.80242216      15.34755672      20.64979646 
H       9.67924002      14.91826678      22.39258931 
H      12.71705251      14.35029338      12.75564572 
H      11.91109125      15.31092198      14.03691398 
H      12.29912738      13.57835133      14.32825483 
H      13.19933075      21.26795633      10.66287240 
H      12.99077712      23.03196827      10.93940909 
H      12.38182517      21.86374983      12.14947543 
H      15.41801528      25.24693914       9.10239427 
H      15.51375027      23.77461397      10.13196971 
H      16.90452512      24.24540144       9.11521155 
H      13.73172041      30.72086944      19.40684529 
H      12.03888455      30.60388281      19.98489360 
H      12.76046557      29.27974343      19.00670534 
H      10.80951163      22.29338252      28.31946207 
H       9.39119470      21.23460176      28.03839981 
H      10.25881850      21.97883397      26.65215220 
H      11.32028693      10.45695653      22.11065997 
H      11.66258263      12.19529070      22.41060751 
H      12.42770594      10.94909521      23.43125795 
H      15.12842009      12.98738832      10.45088370 
H      14.98386256      13.35292432      12.20446574 
H      16.28649731      12.28180304      11.62321314 
H      17.27342452      19.86039367       7.58005475 
H      16.27219876      21.18064638       8.26217801 
H      16.26481329      19.57158566       9.03730531 
H      15.13796896      30.89402527      14.75350766 
H      13.92282737      30.56333112      16.02427402 
H      14.39292849      29.26745071      14.88705405 
H      10.45514179      25.43150283      26.96239029 
H      11.02123323      26.22119039      25.46255602 
H      11.22014801      27.04701706      27.04232926 
H      10.80518579      13.05684342      25.61448876 
H      10.83524467      14.82878650      25.84301092 
H      11.04142031      13.73825791      27.25169994 
H      14.55907386      10.42437959      14.05429776 
H      14.11458013      10.80069725      15.74346313 
H      14.93930211       9.25539578      15.35445927 
H      21.69486586      17.29630358       8.19413850 
H      22.84179742      16.44011071       9.26612802 
H      22.59540360      18.20144003       9.45320945 
H      19.81723852      30.62685618      13.42440283 
H      21.35880904      29.74654284      13.20971983 
H      20.73513702      30.05873719      14.85561049 
H      17.03841115      29.97611945      26.47826138 
H      16.70335439      28.42718907      27.30489907 
H      15.39055918      29.62638485      27.07873290 
H      14.37514930      15.63115150      30.52991649 
H      15.84747848      16.60589560      30.82646321 
H      15.89259110      15.25542281      29.65103513 
H      18.17662175       7.85464891      18.76729064 
H      19.23476148       8.22156070      20.16180600 
H      19.56045433       8.97722179      18.57429423 
H      19.84198855       8.32936137      14.34313452 
H      18.53093809       9.30801609      15.08522186 
H      19.46378278       8.14816042      16.08158904 
H      21.29721308      13.45740414       9.96537038 
H      20.92605687      11.73071046      10.26880411 
H      22.29408777      12.51562955      11.12634150 
H      22.03298721      21.86995550       7.30356763 
H      20.64672488      21.18006686       8.21174366 
H      22.01717695      20.13369343       7.73312348 
H      21.34753200      27.00007924       9.16709256 
H      22.57213231      26.77998048      10.46105267 
H      21.16438925      27.86591621      10.72438412 
H      19.50396628      31.99600559      15.93527216 
H      18.92080238      32.97744633      17.31345634 
H      17.99099512      31.53485282      16.77960041 
H      17.02206162      32.78178470      22.47896580 
H      18.44737198      31.88906407      23.10708434 
H      16.82422740      31.62757598      23.83406408 
H      15.25872625      27.61983947      29.29572341 
H      14.69530592      26.52748737      30.59698705 
H      14.11720736      26.29127146      28.91129575 
H      14.39705714      19.56157429      31.39363974 
H      13.94370693      21.20027490      31.95610267 
H      15.67171407      20.79175292      31.69208069 
H      15.14925556      11.16357262      28.74520235 
H      14.36771565      12.53844610      27.89272564 
H      15.13767834      12.78875103      29.49136131 
H      17.19797171       8.31639194      22.78953967 
H      16.40818267       8.18318229      24.39161273 
H      18.07599901       8.83486887      24.26750888 
