646
Properties=species:S:1:pos:R:3 i=116 optimized=T E=-9963.7669932118 pbc="F F F" jobid=246_80-Ag-39_8-000002-PBE
Au      21.90840294      20.20336437      20.95849557 
Au      24.75048650      20.21132658      21.86235897 
Au      20.46124935      22.75871193      20.46351764 
Au      19.73094105      21.00512818      22.74215297 
Au      19.98318466      18.15871232      21.87864893 
Au      21.16661940      23.56871787      23.20595850 
Ag      20.39682590      21.79672415      25.46356169 
Au      20.64935906      19.00088332      24.61468381 
Au      20.88799853      16.15003892      23.71871256 
Au      21.90405432      16.11201069      20.97843773 
Au      22.73401185      16.15729121      18.14440464 
Ag      23.09076976      18.92246430      17.26837578 
Au      23.33901065      21.74430296      16.39778005 
Au      22.65207405      23.53335412      18.63138892 
Ag      21.87218645      25.23238759      20.88920634 
Au      23.37388452      22.76041629      21.42197702 
Au      22.61985405      21.03853666      23.70929576 
Ag      22.89634326      18.17551645      22.86503316 
Au      23.82180901      18.16857021      20.04530699 
Ag      24.07483179      20.97488038      19.16603388 
Ag      20.93754398      14.03144319      19.02681966 
Au      21.80544041      14.06004915      16.24180983 
Au      22.19504862      16.89192067      15.28080152 
Au      22.42917286      19.73397342      14.40294787 
Au      22.73617283      22.66396034      13.57232237 
Ag      22.03821829      24.36882775      15.85384652 
Au      21.24357151      26.09081763      18.13275989 
Au      20.48144503      27.76693886      20.52743253 
Ag      25.44267809      22.49699597      14.57511762 
Au      24.86703128      24.34188177      16.76159890 
Ag      24.05699733      26.03212327      19.03937105 
Au      23.19078864      27.77009471      21.34754297 
Ag      22.53024660      26.11403750      23.69043579 
Au      21.81054526      24.36567774      25.89322377 
Au      21.02000114      22.61067775      28.15219519 
Au      21.32956112      19.77427493      27.39516819 
Au      21.55214658      17.01599435      26.48653808 
Au      21.76527996      14.16722255      25.58250193 
Ag      22.84589840      14.05172997      22.86899781 
Ag      23.70295047      14.05950947      20.07557709 
Au      24.48331869      14.04173994      17.23852403 
Au      24.94971204      16.85637399      16.26154680 
Au      25.21121931      19.64763330      15.46158012 
Au      23.62605752      19.01704139      25.62058465 
Au      23.82605802      16.20151883      24.74918357 
Au      24.84348433      16.04107118      21.98558386 
Au      25.59344140      16.09638968      19.16670108 
Ag      26.02456524      18.85567762      18.19450814 
Au      26.14270460      21.71006045      17.33720860 
Au      25.57149584      23.54890598      19.56474143 
Au      24.70859823      25.25881546      21.81198893 
Au      24.13448258      23.63363847      24.20420249 
Ag      23.28048864      21.86537596      26.38877974 
Ag      26.22145308      22.77504329      22.32396776 
Au      25.49649095      21.06136074      24.64137951 
Au      25.77756546      18.15323130      23.80791336 
Ag      26.67842346      18.11347413      20.94894607 
Ag      26.96057543      20.96777571      20.02970035 
Au      27.60766386      20.19792182      22.79182429 
Ag      27.56493592      15.22496664      21.39086187 
Ag      28.52959597      17.27169414      18.77109152 
Au      28.70786041      19.88664578      17.83370031 
Ag      28.40699774      23.27347015      18.91719029 
Au      27.69268490      25.00346182      20.99643162 
Ag      26.70926135      25.05137069      24.28371964 
Au      25.97676490      23.45511083      26.46633875 
Au      25.58008978      20.10004762      27.48328491 
Ag      25.84223127      17.32897410      26.76842110 
Ag      26.72725680      15.38066501      24.12422972 
Ag      28.51452390      17.52423317      23.11736451 
Au      29.28616896      19.38988136      20.67900210 
Au      28.99800742      22.36580136      21.66087587 
Ag      28.04806442      22.38373111      24.57564327 
Ag      27.69980984      19.40571942      25.55179500 
Ag      25.52937848      13.27097243      22.34228683 
Ag      26.35027759      13.32209087      19.37024247 
Au      27.16808469      15.09188124      17.11160891 
Au      27.60541058      17.87048322      15.99178813 
Ag      27.76738271      20.76524172      15.13183026 
Ag      27.67959478      23.74162748      16.04284705 
Ag      26.89243126      25.72713016      18.25249664 
Ag      25.99066342      27.48232575      20.57373648 
Au      25.08939954      27.44966524      23.47265992 
Ag      24.32931601      25.90716016      25.94854508 
Au      23.44350712      24.10828524      28.21184264 
Au      23.29258089      21.10934980      29.08638417 
Au      23.54551116      18.20974982      28.40984025 
Au      23.60249221      15.35220203      27.48793489 
Au      24.57571000      13.56845505      25.19265000 
Au      24.40072313      11.55966358      15.50710101 
Au      24.10446475      14.86025151      14.38187778 
Ag      24.32252432      17.64445452      13.46705759 
Au      24.52555543      20.47010195      12.69811140 
Ag      25.17903888      23.37460181      11.61423921 
Ag      24.22495099      25.13949749      14.07095040 
Ag      23.42117273      26.89301049      16.28075181 
Au      22.60463325      28.51313862      18.58352436 
Au      22.61895700      30.75868034      20.94688915 
Au      21.16947191      28.62687641      23.33309807 
Ag      20.35612712      26.91562948      25.51364428 
Au      19.66152608      25.14340631      27.71740918 
Ag      19.38915092      23.70502973      30.47090962 
Au      19.31640832      20.54811548      29.28432459 
Ag      19.40683966      17.74637349      28.37524538 
Ag      19.74821509      14.92956477      27.52591269 
Ag      20.53138082      11.85858161      27.02698424 
Ag      21.07262966      11.95573474      23.80846872 
Ag      21.83766243      12.00544489      20.96547385 
Ag      22.68416858      11.95834571      18.14599816 
Au      29.61979709      14.37687222      23.48458089 
Au      31.37695695      18.29451911      18.04686374 
Au      30.70501057      24.97024318      19.84430773 
Au      28.81002270      24.89895098      26.61189760 
Ag      27.92796297      18.46945697      28.58455053 
Au      28.87205627      27.78153804      18.76615781 
Au      30.18945554      18.60731430      14.69757109 
Au      27.94622988      11.71013329      21.86266743 
Au      25.41248502      16.63151410      30.11933459 
Ag      26.02284873      25.90498346      28.37939673 
Ag      26.57641575      26.56610840      15.31365413 
Au      23.12043842      28.78479896      25.88147342 
Au      21.55326529      18.81446654      30.75188088 
Au      23.95724357      10.81600136      23.38191411 
Au      27.10436740      15.74654575      13.79277620 
S      29.90912087      22.87701470      26.16953678 
S      29.55312752      18.33298434      26.81340283 
S      30.73426925      16.37341280      22.97735333 
S      31.67706892      19.58561402      19.98056597 
S      31.07350385      23.72469641      21.79520740 
S      27.90273830      26.96751146      27.26201811 
S      30.52228040      26.31508503      17.91284927 
S      31.31097249      17.02758715      16.06312344 
S      28.77359067      12.23755512      24.01725176 
S      26.79503921      18.45281827      30.72163499 
S      28.04466579      26.61421037      22.84823480 
S      29.63147340      22.09767740      17.06166780 
S      29.06245065      14.90452884      19.37992941 
S      26.89780916      15.03131331      26.59884956 
S      26.34689558      22.17740602      28.58526331 
S      24.26071577      25.54969245      30.00228467 
S      27.31610371      29.34317635      19.55502687 
S      29.22435753      20.13296222      13.19974789 
S      27.17994885      10.99777319      19.76926895 
S      24.08952138      14.70986282      29.78671237 
S      22.64931990      20.80574089      31.43460356 
S      24.93382657      29.59797825      24.59803707 
S      28.14349608      25.16765711      14.07146918 
S      27.86337760      13.91557863      15.09193709 
S      24.48018783      11.17441802      25.66233944 
S      20.34649931      16.80781747      30.48330587 
S      21.27719710      28.43566955      27.30652310 
S      25.23075599      28.52755089      15.77775981 
S      26.42396452      17.30250522      12.15675538 
S      23.40341379      10.07705389      21.21916149 
S      20.30271953      10.14188293      25.35584126 
S      20.76229219      13.19204178      29.01171196 
S      18.37188443      21.66908626      31.25578303 
S      20.39051012      25.83833888      29.96584910 
S      21.23992028      31.07524270      22.82225182 
S      23.92704083      30.53819943      19.00128343 
S      24.54631632      25.70515423      11.66373559 
S      26.35419593      21.27363942      11.32026935 
S      24.22535887      12.61001797      13.40722604 
S      24.50495101      10.32513693      17.50185001 
C      31.50268570      23.26722686      25.35605426 
C      30.92829450      19.49084439      27.18464407 
C      31.78494055      16.74206135      24.43468535 
C      32.80343140      18.63843537      21.07159006 
C      32.57559083      22.71521348      21.51560933 
C      28.97011123      27.54935825      28.64560051 
C      32.05008072      27.34038244      17.89020771 
C      33.03984892      17.04696521      15.43606055 
C      30.26876447      11.17343583      24.15935295 
C      27.97350451      17.71656859      31.92966832 
C      29.78930308      26.71725839      23.40728695 
C      31.46075416      22.27251841      17.11048003 
C      30.86913592      14.65715837      19.62790204 
C      28.63800638      14.79431991      27.13756773 
C      28.10470351      21.99501441      29.05823121 
C      24.91543624      24.38117387      31.25685801 
C      28.11079873      30.05148646      21.05347035 
C      30.39300990      21.54874691      13.12610459 
C      28.67430216      11.00926831      18.69899632 
C      25.29433806      13.34056779      29.59304657 
C      24.06080229      20.28851028      32.48034527 
C      26.31746939      29.93050817      25.74931773 
C      29.81409436      25.92135117      14.18684315 
C      29.68896631      13.87116472      14.97105594 
C      26.13814044      10.45251832      25.95094232 
C      18.97212599      16.97927781      31.69365937 
C      20.34604632      30.01122131      27.12648198 
C      24.85930092      29.19344025      14.10317991 
C      25.93597180      16.23200196      10.74431423 
C      22.30484991       8.63589656      21.53453301 
C      21.55878783       8.86316810      25.75930383 
C      19.51395834      12.56983217      30.20457655 
C      19.23395335      21.20860930      32.81005287 
C      19.28281443      27.16233536      30.57716112 
C      22.21225473      32.06434884      24.02211808 
C      23.35291676      31.83549667      17.84211971 
C      26.09514903      26.62582902      11.29684490 
C      26.12445917      20.68175617       9.60280751 
C      25.79947431      12.29816934      12.52058488 
C      23.75583876       8.69988641      17.09742322 
Au      19.00449823      20.22641750      19.97779301 
Ag      16.15570045      20.24127175      19.07734540 
Au      21.22015656      20.99081886      18.20868919 
Au      20.91837077      18.18660643      19.05791337 
Ag      19.79556681      23.53916286      17.75292875 
Au      20.57713046      21.79393651      15.52006541 
Ag      20.26210125      18.98681098      16.30144801 
Ag      19.99106731      16.19877230      17.17584692 
Au      19.07485552      16.12069686      19.95458451 
Ag      18.13794992      16.11185622      22.81700324 
Ag      17.84176067      18.91350785      23.67248224 
Au      17.63433033      21.75619494      24.59599005 
Au      18.32157330      23.51746856      22.31730218 
Ag      19.07878008      25.23717018      20.02290309 
Ag      17.57528027      22.74523522      19.56327472 
Au      18.30755862      21.01481530      17.26175404 
Au      18.04266601      18.20590130      18.09295235 
Ag      17.13447569      18.16704193      20.90415717 
Au      16.86427383      20.98377898      21.78116549 
Ag      20.08199071      14.03810839      21.90150264 
Ag      19.07901848      14.00215418      24.74169370 
Ag      18.77723207      16.86092504      25.60622703 
Au      18.52349993      19.73266823      26.52617942 
Ag      18.25078354      22.58395493      27.37644144 
Ag      18.95119229      24.36676890      25.08794694 
Ag      19.74952852      26.09848989      22.83796389 
Ag      15.51370336      22.51266630      26.39677107 
Au      16.13569210      24.34893932      24.18923594 
Au      16.94203011      25.99682417      21.92579765 
Au      17.78091403      27.78716663      19.66271228 
Au      18.40838176      26.08773719      17.27032902 
Au      19.15411888      24.37379413      15.06127382 
Au      19.98673542      22.63854981      12.82545765 
Au      19.62199365      19.77912557      13.52669878 
Au      19.35070331      17.01443402      14.41601577 
Au      19.06724739      14.16993683      15.34751897 
Ag      18.12259364      14.02214003      18.05060006 
Au      17.26481798      14.12027687      20.88992305 
Ag      16.38324648      14.02771059      23.79043772 
Ag      15.99178111      16.80224646      24.65130733 
Au      15.74103255      19.64339093      25.50500892 
Ag      17.31690358      18.98706257      15.31322372 
Ag      17.18332739      16.20284829      16.18617943 
Au      16.19459226      16.08132226      18.98287453 
Ag      15.37634545      16.07236958      21.83972059 
Au      14.96907210      18.84679562      22.72819748 
Au      14.81050533      21.70793468      23.64531069 
Ag      15.34934469      23.55858416      21.40532385 
Au      16.21618513      25.23677951      19.13867188 
Au      16.82349399      23.53658579      16.81010556 
Au      17.69768483      21.83077076      14.56821191 
Au      14.70045081      22.78742650      18.65640411 
Au      15.45290964      21.01942857      16.24228884 
Au      15.23108263      18.13376926      17.18412580 
Ag      14.26193421      18.07489102      20.01822435 
Au      13.95526423      20.95784240      20.91640647 
Au      13.33217814      20.17680688      18.13730040 
Au      13.42798345      15.16332788      19.58107119 
Au      12.44236830      17.35414647      22.23151365 
Au      12.19596659      19.93000527      23.12141065 
Au      12.47715727      23.40553218      22.04043512 
Au      13.08584925      25.08310776      19.97565674 
Au      14.25839039      24.99349990      16.66302929 
Ag      14.96226522      23.39950592      14.43230050 
Ag      15.29506078      20.11306870      13.40792008 
Ag      15.15363691      17.33892458      14.13563819 
Ag      14.23598521      15.37627752      16.90498810 
Au      12.45403490      17.49989881      17.86161271 
Ag      11.58431839      19.39068984      20.25300183 
Au      11.92721726      22.31147586      19.34415975 
Ag      12.90709707      22.39617070      16.38920931 
Au      13.31468039      19.29897049      15.40294266 
Au      15.42206965      13.30179282      18.59752954 
Au      14.71386459      13.24508159      21.63230530 
Ag      13.65451838      15.14090905      23.84154090 
Au      13.39922892      17.92249466      24.99344019 
Ag      13.19093635      20.82871854      25.86207984 
Ag      13.35480387      23.80267722      24.85129416 
Ag      14.07750949      25.78129412      22.66991295 
Au      15.02393618      27.47579518      20.40046279 
Au      15.86318468      27.50097486      17.50434811 
Au      16.54514955      25.80794935      15.05217544 
Ag      17.45427150      24.07162413      12.76659237 
Au      17.69292249      21.19299869      11.83707731 
Au      17.38011682      18.25182577      12.55245559 
Ag      17.34193503      15.33313348      13.36328564 
Ag      16.26604809      13.54399328      15.69578033 
Au      16.73324583      11.59149736      25.54037953 
Au      16.91601727      14.86283267      26.55182335 
Au      16.70912737      17.60569959      27.41968173 
Au      16.43710642      20.43352137      28.25472023 
Ag      15.56767056      23.20909080      29.36286855 
Au      16.76771215      25.09945066      26.89093517 
Ag      17.55047929      26.87490641      24.68648256 
Au      18.36800785      28.52343912      22.44041773 
Au      18.32864589      30.75406557      20.06409015 
Au      19.77002478      28.61617431      17.69856796 
Au      20.66037404      26.91462625      15.47381678 
Ag      21.28499278      25.22568138      13.19616099 
Ag      21.63804426      23.59871826      10.51320496 
Ag      21.71290903      20.56262221      11.65201373 
Au      21.57276676      17.76626336      12.52578303 
Au      21.22783731      14.94752265      13.47339788 
Ag      20.52195466      11.93730198      13.87512355 
Au      19.90338350      11.95140819      17.14708302 
Au      19.19186534      12.01797727      19.93329167 
Au      18.30713309      12.03697271      22.70416973 
Ag      11.41271421      14.35260191      17.46729569 
Au       9.54181752      18.27692482      22.90070394 
Au      10.06246474      24.87210412      20.78871469 
Au      12.24985788      24.82511145      14.20539946 
Au      13.11317742      18.32250881      12.05215733 
Au      11.90885893      27.68506596      21.91227218 
Ag      10.81984274      18.80339802      26.08839183 
Ag      12.90250019      11.94196833      19.26364399 
Ag      15.70458371      16.46278378      10.96645581 
Au      15.03821736      26.39756816      12.58177387 
Ag      14.46725801      26.65840924      25.63856108 
Ag      17.82622855      28.55155512      15.30612749 
Ag      19.36786820      18.97591611      10.36724181 
Au      16.90423985      10.92596611      17.52469919 
Au      13.85214573      15.64073219      27.00952696 
S      11.26323046      22.72205973      14.53068973 
S      11.66698994      18.25953179      13.89921627 
S      10.25216668      16.42755391      17.82893322 
S       9.16428330      19.52712273      20.95039300 
S       9.84303042      23.53307357      18.86905660 
S      13.02886967      26.99265324      13.69933279 
S      10.13775899      26.30546798      22.66143379 
S       9.65853384      17.03574178      24.90141117 
S      12.07241027      12.09219796      16.99348911 
S      14.37620879      18.29869686      10.07438163 
S      12.83298006      26.50839531      17.97813985 
S      11.25866598      22.12225978      23.75436476 
S      11.87454867      15.08235102      21.53129593 
S      14.30233638      14.96966355      14.45271538 
S      14.91130981      22.26503835      12.18882965 
S      16.93506267      25.99432937      11.26325514 
S      13.55281403      29.22953192      21.25505181 
S      11.53109510      20.48117289      27.66294254 
S      13.43681988      11.16835090      21.49286620 
S      16.86721089      14.35851832      11.12388483 
S      18.32388603      21.00735001       9.49158205 
S      15.97851682      29.68647083      16.47662118 
S      12.72814993      25.31224566      26.68736543 
S      13.03303013      13.76402084      25.81841686 
S      16.44446865      11.09597687      15.21379504 
S      20.80265427      17.00738440      10.34488039 
S      19.68679982      28.32856843      13.73361251 
S      15.84547946      28.62054700      25.25352295 
S      14.57165975      17.22166144      28.61356858 
S      17.44846088      10.24727617      19.72430127 
S      20.74403375      10.24082545      15.57621620 
S      20.33350732      13.32590353      11.89812886 
S      22.64185719      21.60973416       9.59355863 
S      20.50630915      25.68810910      10.86554878 
S      19.72946761      31.03433768      18.19562627 
S      17.01429597      30.54835572      22.00608971 
S      16.28889943      25.49845247      29.28545638 
S      14.56247497      21.04438513      29.68448703 
S      16.84965721      12.62810686      27.64683527 
S      16.57545763      10.44575209      23.49537639 
C       9.57462333      23.03749236      15.17571580 
C      10.30526625      19.41967682      13.49956257 
C       9.34080762      16.87263276      16.30278118 
C       8.03699502      18.54620781      19.88850844 
C       8.37302540      22.46476292      19.08436090 
C      11.94702697      27.56397579      12.32531055 
C       8.65612205      27.38626515      22.52773890 
C       7.95036184      17.07216899      25.58793193 
C      10.51990323      11.09902668      16.97142147 
C      13.27966593      17.50355914       8.82640766 
C      11.12400952      26.47401074      17.32163126 
C       9.45125214      22.24698546      23.46161307 
C      10.07378733      15.02291666      21.18553675 
C      12.63337127      14.49612877      13.83637043 
C      13.30439879      22.27240616      11.29264883 
C      16.28951194      25.10659429       9.78970507 
C      12.90020114      29.95905540      19.70172638 
C      10.37393534      21.89529433      27.46954814 
C      11.95961348      11.45399444      22.54089915 
C      15.59912594      13.06989514      11.44374302 
C      16.87623751      20.55011453       8.46778851 
C      14.62735749      29.92412516      15.26407132 
C      11.10948538      26.11634660      26.36524289 
C      11.21245121      13.77781100      26.04379336 
C      14.78500420      10.35972561      14.95723500 
C      22.13251063      17.46526505       9.16212303 
C      20.59792696      29.91672599      13.88578006 
C      16.22918602      29.17777159      26.96434623 
C      15.05117619      16.17177347      30.04269077 
C      18.43982210       8.72709483      19.43928330 
C      19.49297741       8.94069089      15.23997222 
C      21.69210333      12.87136427      10.75628084 
C      21.72645493      21.29109328       8.03166268 
C      21.52162861      27.02371668      10.12473382 
C      18.78771444      32.00778615      16.95921446 
C      17.57930263      31.86183920      23.15111005 
C      14.77149428      26.49648510      29.56259638 
C      14.93802799      20.50170348      31.39432098 
C      15.24530038      12.28416216      28.46828093 
C      17.33243716       8.80097557      23.77725241 
H      31.99393493      22.30934406      25.14331271 
H      32.12258440      23.84810858      26.04758607 
H      31.36214541      23.81523022      24.41872004 
H      31.63060642      19.45197765      26.34255315 
H      31.43819572      19.15742744      28.09527383 
H      30.57877638      20.52139822      27.30582886 
H      32.29118903      17.69358216      24.22886715 
H      32.53261162      15.95004990      24.54984694 
H      31.18294152      16.84263499      25.34428244 
H      33.78255145      18.56036892      20.58586122 
H      32.40296307      17.64311491      21.28975220 
H      32.90168052      19.20483052      22.00612180 
H      33.42628920      23.38971802      21.36732619 
H      32.45887732      22.04528099      20.65781725 
H      32.73513257      22.11792103      22.42213978 
H      29.94097233      27.85063443      28.23610298 
H      29.11363361      26.77032419      29.39944251 
H      28.47841583      28.41640117      29.10264517 
H      31.93466393      28.09644388      17.10478482 
H      32.89374648      26.68280895      17.65092110 
H      32.21901849      27.82708253      18.85460928 
H      33.03681853      16.60209209      14.43405135 
H      33.65246532      16.43752122      16.11039154 
H      33.43698857      18.06460360      15.38917801 
H      29.93482058      10.13187910      24.23367887 
H      30.79855244      11.45845710      25.07567697 
H      30.92892581      11.29227504      23.29577175 
H      28.73289159      18.47352338      32.15933940 
H      28.45779172      16.82194064      31.52852705 
H      27.42441171      17.46088000      32.84318993 
H      30.38055150      27.20352588      22.62232340 
H      30.19727646      25.72272478      23.60947306 
H      29.80459467      27.31709695      24.32500824 
H      31.89326685      21.63845084      16.32770813 
H      31.83478958      21.95657108      18.09017560 
H      31.70839345      23.32538273      16.93412197 
H      31.37190125      14.82049652      18.66774210 
H      31.03549465      13.62949734      19.97182683 
H      31.25196818      15.35876645      20.37603492 
H      28.97647074      13.81792107      26.77147254 
H      28.66526708      14.81108026      28.23395333 
H      29.28610332      15.58462321      26.74627178 
H      28.50956446      22.99062117      29.27800712 
H      28.69228683      21.53529739      28.25837326 
H      28.13687127      21.36492863      29.95618142 
H      24.06009176      23.94262113      31.78516905 
H      25.53648724      24.94768994      31.96044635 
H      25.50299634      23.58322218      30.78872260 
H      28.98201036      30.64535941      20.75720263 
H      28.40164184      29.26616427      21.76050913 
H      27.36334876      30.70295384      21.52342289 
H      31.30143004      21.24610283      12.59403865 
H      30.64299428      21.91949321      14.12540732 
H      29.88186054      22.34370114      12.56802715 
H      28.32240781      10.81011250      17.67882206 
H      29.35748729      10.21405447      19.01589294 
H      29.17725290      11.98243946      18.72612572 
H      24.71905232      12.45265305      29.30227586 
H      25.78676950      13.16689079      30.55629801 
H      26.03043763      13.57629820      28.81540550 
H      24.64631616      21.18844885      32.70472631 
H      24.69621830      19.55828170      31.96847518 
H      23.66602037      19.86396897      33.41041204 
H      27.17630596      30.24022406      25.14142350 
H      26.58527841      29.04172596      26.32927367 
H      26.02236562      30.74824077      26.41651314 
H      29.83487239      26.83551420      13.58259597 
H      30.53885506      25.20325476      13.78445954 
H      30.07438078      26.15588121      15.22447057 
H      29.96141084      13.57749737      13.95076182 
H      30.04276035      13.11277589      15.68019746 
H      30.13364482      14.84066474      15.21759583 
H      26.06604240       9.36305396      25.85699633 
H      26.43138794      10.71769941      26.97408233 
H      26.87554547      10.84929487      25.24592378 
H      18.28560346      16.14010283      31.52691355 
H      18.43306814      17.92266689      31.55914364 
H      19.38039608      16.92109403      32.70892262 
H      19.41478850      29.89943143      27.69568189 
H      20.10528871      30.21639551      26.07767940 
H      20.93341354      30.83418242      27.54877846 
H      25.77499399      29.62018894      13.67802709 
H      24.10889060      29.98566333      14.21360597 
H      24.46845491      28.41682393      13.43611218 
H      25.48935093      16.88269092       9.98215459 
H      25.20531381      15.47540302      11.04807354 
H      26.82911313      15.74842023      10.33285393 
H      21.88173665       8.33473014      20.56828010 
H      21.49333768       8.89257680      22.22421909 
H      22.90206710       7.81416353      21.94535798 
H      21.68248019       8.20824063      24.88876470 
H      21.18847375       8.27532960      26.60713601 
H      22.52307452       9.31571750      26.01113157 
H      19.86809539      11.62242982      30.62707541 
H      18.54129506      12.41869626      29.72385882 
H      19.42200573      13.31234529      31.00660403 
H      18.99364636      20.16546574      33.04633595 
H      18.85478639      21.86251991      33.60433461 
H      20.31840547      21.31910073      32.71335033 
H      19.57694675      28.09368420      30.07765364 
H      19.43354729      27.26322177      31.65864026 
H      18.23222603      26.93415411      30.36558722 
H      22.28986051      33.08582766      23.63192882 
H      23.20883706      31.63936405      24.17550484 
H      21.66479378      32.07370768      24.97210972 
H      23.76456238      31.58505886      16.85668338 
H      23.75617567      32.79828086      18.17736837 
H      22.25918200      31.87698231      17.80113827 
H      26.34664189      26.47063093      10.24161852 
H      26.91788928      26.28406509      11.93488822 
H      25.91150722      27.69234734      11.47301087 
H      26.81032838      21.24755085       8.96081858 
H      25.09139140      20.82643235       9.26643471 
H      26.39295734      19.61883466       9.58008195 
H      25.81179102      12.92732345      11.62283293 
H      25.81405602      11.24088739      12.23123523 
H      26.66203540      12.53410467      13.15140030 
H      24.44420304       8.13531365      16.45861015 
H      22.78967123       8.82357087      16.59503852 
H      23.62119784       8.16781480      18.04735342 
H       8.99525023      23.58048275      14.42116696 
H       9.59700338      23.59938535      16.11521680 
H       9.11275148      22.05811896      15.35357528 
H       9.74005820      19.01104212      12.65438240 
H      10.68561852      20.41815132      13.26281065 
H       9.65688286      19.47653148      14.38256587 
H       8.48931765      16.18983092      16.20039201 
H       9.98335840      16.80907767      15.41892661 
H       8.97316397      17.90008107      16.41306101 
H       7.79665826      19.16785273      19.01652756 
H       7.11742843      18.32861641      20.44220539 
H       8.50968257      17.61945203      19.54656783 
H       8.33228064      21.79300678      18.21790577 
H       7.48370200      23.10513731      19.09561864 
H       8.43116391      21.86952155      20.00135691 
H      12.35728499      28.50696744      11.94517109 
H      10.94378326      27.73541547      12.73241577 
H      11.89972351      26.82760859      11.51835493 
H       7.77164764      26.76933838      22.72434470 
H       8.57980938      27.84022338      21.53606114 
H       8.74025385      28.16819214      23.29154642 
H       7.30525132      16.44638916      24.96078459 
H       7.55291353      18.09029907      25.62449912 
H       7.99001861      16.65677666      26.60197473 
H       9.99044805      11.29887646      16.03261653 
H       9.86919202      11.34404185      17.81550179 
H      10.79035221      10.03762911      17.01744271 
H      13.89016048      17.29077250       7.94065765 
H      12.47936492      18.20344862       8.56070045 
H      12.84770805      16.57270127       9.20416175 
H      11.11904107      27.06064861      16.39513679 
H      10.46120145      26.93020111      18.06720011 
H      10.79450047      25.45204797      17.11555616 
H       9.15304697      23.28367651      23.65560286 
H       8.94661225      21.56358355      24.15524236 
H       9.20951622      21.96872694      22.43114548 
H       9.83624867      14.01983588      20.81045632 
H       9.79574022      15.77433387      20.44074998 
H       9.54804788      15.21550137      22.12855986 
H      12.69966971      14.32822351      12.75496380 
H      11.92184038      15.30396288      14.03866930 
H      12.32057316      13.57806441      14.34721984 
H      13.34504473      21.50457717      10.51130615 
H      13.16139639      23.26255290      10.84398832 
H      12.47966441      22.06242922      11.98149914 
H      15.69968188      25.79586360       9.17606560 
H      15.68678885      24.23881340      10.08043051 
H      17.16731174      24.76472247       9.22669343 
H      13.71381360      30.55198015      19.26539916 
H      12.05220252      30.60764355      19.94781316 
H      12.60006500      29.17779303      18.99442615 
H      10.81795663      22.75640919      27.98464788 
H       9.41527548      21.63976178      27.93458362 
H      10.22374826      22.15460004      26.41632573 
H      11.20782957      10.69511478      22.29510415 
H      11.54937587      12.45817113      22.38675611 
H      12.26785877      11.34696865      23.58836183 
H      15.00463565      12.91147044      10.53722704 
H      14.94817196      13.34908744      12.27952932 
H      16.12970150      12.14481229      11.70155821 
H      17.24205095      20.18631266       7.50033136 
H      16.27014240      21.45130629       8.31586934 
H      16.26460757      19.78029857       8.94910189 
H      14.84397407      30.83975242      14.70057362 
H      13.68393535      30.04151092      15.80960403 
H      14.54506433      29.07640292      14.57789831 
H      10.32066503      25.43724969      26.71081575 
H      10.96483755      26.32180541      25.29986109 
H      11.05935392      27.05182989      26.93382376 
H      10.80374497      12.98147257      25.40955060 
H      10.77678938      14.73852870      25.74785053 
H      10.97979866      13.56470671      27.09297578 
H      14.51222136      10.54261346      13.91044747 
H      14.03547011      10.81641432      15.61360597 
H      14.83660927       9.28033781      15.13766931 
H      21.71548008      17.42794787       8.14866144 
H      22.93836182      16.72720461       9.25239219 
H      22.52852775      18.46662096       9.36629112 
H      20.00734000      30.69914667      13.39425949 
H      21.56140444      29.80931418      13.37324768 
H      20.76999455      30.18074775      14.93444379 
H      16.96153493      29.99151033      26.89622891 
H      16.64889481      28.36629646      27.56886696 
H      15.31465829      29.55643079      27.43523527 
H      14.14629303      15.72955930      30.47520465 
H      15.53315362      16.82298098      30.78235040 
H      15.74935750      15.38436946      29.74039011 
H      17.77437182       7.93495409      19.07705879 
H      18.87489450       8.43228651      20.40232665 
H      19.24135020       8.90722273      18.71528263 
H      19.85011443       8.35026119      14.38779882 
H      18.51380343       9.37544454      15.01389370 
H      19.41305250       8.29544993      16.12267286 
H      21.85486998      13.71807936      10.07856285 
H      21.36742353      11.99612993      10.18052972 
H      22.61371276      12.63807662      11.30041265 
H      22.03459433      22.04230821       7.29560291 
H      20.64356128      21.34110265       8.18611655 
H      21.99799615      20.29316676       7.66741552 
H      21.36762278      27.02204573       9.03960317 
H      22.58524659      26.88970919      10.35134365 
H      21.16831437      27.97360129      10.54408618 
H      19.36421232      32.01637129      16.02667921 
H      18.69552228      33.03051373      17.34316135 
H      17.79700870      31.57798543      16.78054642 
H      17.17412036      32.82057693      22.80676116 
H      18.67293196      31.90759602      23.19471992 
H      17.16696566      31.61813854      24.13808322 
H      15.00562157      27.54605714      29.34942399 
H      14.49044610      26.39158078      30.61694267 
H      13.95115127      26.16387352      28.91726869 
H      14.77216145      19.41888700      31.44492403 
H      14.23922209      21.00959438      32.06976578 
H      15.97028186      20.74178410      31.67303817 
H      15.21962146      11.21853855      28.72365911 
H      14.40349602      12.54195561      27.81699087 
H      15.20366844      12.88314755      29.38566707 
H      17.44904203       8.33120005      22.79295384 
H      16.64438267       8.20487278      24.38793122 
H      18.30406927       8.89196836      24.27717551 
