646
Properties=species:S:1:pos:R:3 i=91 optimized=T E=-9778.4697737502 pbc="F F F" jobid=246_80-Ag-19_9-000002-PBE
Au      21.90793880      20.19769452      20.92167617 
Au      24.76639788      20.21863418      21.85670267 
Au      20.44862121      22.67866921      20.44893308 
Ag      19.70337774      20.95321083      22.71047398 
Au      20.00160838      18.16077199      21.85734621 
Au      21.15753097      23.48560501      23.14519877 
Au      20.36217175      21.75818716      25.39717948 
Au      20.68401031      18.95508537      24.59080082 
Ag      20.93203856      16.14550652      23.72024262 
Au      21.87484831      16.08674715      20.96434010 
Au      22.75543646      16.09300652      18.13597606 
Au      23.06427825      18.88982648      17.25453955 
Au      23.31654231      21.68916418      16.35448697 
Au      22.61881045      23.44530852      18.60302473 
Au      21.83355428      25.17689491      20.85965191 
Ag      23.37151220      22.71103982      21.36863919 
Ag      22.63610105      20.99230600      23.65965697 
Au      22.88881101      18.18780816      22.83386361 
Au      23.80523207      18.14902387      20.01102200 
Ag      24.08591688      20.92706286      19.12867522 
Au      20.87753387      13.98516693      18.99797254 
Au      21.83823409      14.03509098      16.18568956 
Au      22.18970642      16.84133559      15.27587647 
Au      22.40415494      19.68517771      14.38478343 
Ag      22.74800932      22.57294875      13.53860296 
Au      21.98554060      24.31016476      15.84338438 
Ag      21.13584116      26.04818253      18.12851556 
Au      20.41267765      27.74726741      20.42740423 
Au      25.46969727      22.47235447      14.52209761 
Au      24.81256934      24.26097744      16.75584838 
Au      23.99983304      25.97298566      19.00259632 
Au      23.12946330      27.74472215      21.24282056 
Au      22.51965321      26.08945662      23.66152063 
Au      21.77958671      24.33694979      25.83550887 
Ag      20.95518368      22.59497501      28.17948113 
Au      21.37431633      19.74871205      27.36970264 
Ag      21.55707700      16.98372453      26.49494303 
Ag      21.77570853      14.11469859      25.61240894 
Ag      22.81674684      13.98262876      22.84669031 
Au      23.71448297      14.02284866      20.05964491 
Ag      24.53052811      13.98247788      17.15697234 
Au      24.95092308      16.78549558      16.23293160 
Au      25.20406086      19.58518123      15.41320869 
Ag      23.62941326      18.97785546      25.63495223 
Au      23.73405705      16.19434390      24.68716896 
Au      24.78313627      16.06975423      21.94732919 
Au      25.58566404      16.06090674      19.09173933 
Au      26.03450461      18.84347205      18.16120437 
Au      26.16182110      21.65715528      17.27610404 
Au      25.55368064      23.47757184      19.54619341 
Au      24.76258845      25.23757687      21.77018779 
Au      24.08721238      23.56231511      24.11078155 
Au      23.25468936      21.84329503      26.32829185 
Au      26.27978679      22.79510310      22.28174011 
Au      25.50643811      21.03289518      24.64453089 
Au      25.78477746      18.13998601      23.78885565 
Au      26.71676836      18.10275849      20.90464371 
Au      27.00943035      20.97877418      19.97218424 
Au      27.65935926      20.21286385      22.77804742 
Au      27.60597895      15.22981726      21.39018028 
Au      28.57105882      17.27399910      18.62991875 
Au      28.78704304      19.86168598      17.70430828 
Au      28.51104716      23.37329480      18.86519250 
Au      27.86197205      25.11889180      20.89461166 
Au      26.68354649      25.05593105      24.25781551 
Au      26.02789521      23.46431456      26.43348231 
Au      25.67436340      20.07003285      27.49891345 
Au      25.91332681      17.41536259      26.79323045 
Au      26.78172827      15.31853924      24.04499233 
Au      28.57664044      17.52702472      23.08257572 
Au      29.32382587      19.34436801      20.63463985 
Au      29.05811086      22.37863825      21.57625523 
Au      28.11840613      22.41447698      24.52321744 
Au      27.78558659      19.39552081      25.49879797 
Au      25.56364445      13.29257712      22.28203086 
Ag      26.37005758      13.31816755      19.37088631 
Au      27.16393565      15.06126077      17.04661787 
Au      27.59100748      17.87601323      15.88135529 
Ag      27.73996532      20.74911785      15.00089390 
Ag      27.62851112      23.74308346      16.02805896 
Au      26.84553021      25.68923565      18.19410413 
Au      25.88448812      27.53653404      20.48910297 
Au      25.05902136      27.46954950      23.43107231 
Ag      24.39282488      25.83864691      25.89914939 
Au      23.44817449      24.04319935      28.11123004 
Au      23.30773264      21.15989793      29.01702899 
Ag      23.59192587      18.21781493      28.43148570 
Au      23.69427661      15.39348436      27.37170429 
Au      24.54234007      13.57602158      25.14177224 
Au      24.29409399      11.53278210      15.36585633 
Au      24.11733840      14.79717151      14.35564535 
Ag      24.30216634      17.56353397      13.44574157 
Au      24.51606239      20.37636340      12.68187401 
Au      25.61145893      23.21981197      11.56079955 
Au      24.25665806      25.12433657      14.07250387 
Au      23.30907149      26.81372613      16.22361422 
Au      22.49370041      28.49451115      18.46027800 
Au      22.51253184      30.70471087      20.85888116 
Au      21.16387873      28.58339773      23.24465171 
Ag      20.36797988      26.92415648      25.48905301 
Au      19.60191244      25.12243534      27.64605121 
Au      19.48115210      23.73210022      30.56426970 
Au      19.29579135      20.43591257      29.28869171 
Au      19.42715058      17.69869788      28.37760742 
Au      19.65537877      14.91114246      27.44172928 
Ag      20.40918562      11.89172091      27.13851135 
Au      21.00563382      11.91848094      23.77275085 
Au      21.79417405      11.91699181      20.97431683 
Au      22.66471957      11.99402948      18.17820463 
Ag      29.55691715      14.31457868      23.49637187 
Au      31.43748693      18.24669539      18.04064623 
Au      30.89658303      24.98308487      20.00685476 
Ag      28.58643108      25.04362709      26.57899771 
Ag      27.93585434      18.52233394      28.72794476 
Ag      28.84269863      27.59714345      19.14686124 
Au      30.26044519      18.63242281      14.70779512 
Au      28.01405289      11.64268983      21.75099684 
Au      25.40810686      16.58045631      30.16385985 
Au      25.96137581      26.43853382      28.39528136 
Au      26.73233934      26.71139779      15.30127308 
Ag      23.06702881      28.65943758      25.61401974 
Au      21.64967316      18.86991906      30.78084192 
Au      24.02533324      10.84019009      23.40440727 
Au      27.11049495      15.68331531      13.74874866 
S      29.78350329      22.98022878      26.22658884 
S      29.55738987      18.52030868      26.94775114 
S      30.74148881      16.38170567      23.14253801 
S      31.68435925      19.54257767      19.98099196 
S      31.16090330      23.61375430      21.89519229 
S      27.88380241      27.24500373      27.29137697 
S      30.78969145      26.47819874      18.19834381 
S      31.38712591      17.01905370      16.03093115 
S      28.88781682      12.03308556      23.91506404 
S      26.80469759      18.35297232      30.85635975 
S      28.10263275      26.53608956      22.89097855 
S      29.67431091      22.08960580      17.11537328 
S      29.08959350      15.00593000      19.42256603 
S      26.89776611      15.15285439      26.49090708 
S      26.23104623      22.22659638      28.56219645 
S      24.09552381      25.79722079      29.67628288 
S      27.31790397      29.36338592      19.81136295 
S      29.37780539      20.20152701      13.20139135 
S      27.30295542      11.02215527      19.59644390 
S      24.03358876      14.72820126      29.69721690 
S      22.74406722      20.88212988      31.36598642 
S      24.91173593      29.68613278      24.37387094 
S      28.31278284      25.31620850      14.22343742 
S      27.91697555      13.87888062      15.06319406 
S      24.52428844      11.20598580      25.69207656 
S      20.39487338      16.89218075      30.50341743 
S      21.25591075      28.49468069      27.22521038 
S      25.21450845      28.36820129      16.02952090 
S      26.38445417      17.20445587      12.09985573 
S      23.42864511      10.09840125      21.24680363 
S      20.29489059      10.23090216      25.41687606 
S      20.62937413      13.34132087      29.04364804 
S      18.52806172      21.70444492      31.25740849 
S      20.36372417      25.79848086      29.87669609 
S      21.13201665      31.00816877      22.73680501 
S      23.81660361      30.54371946      18.90678075 
S      24.79818813      25.41949508      11.68602102 
S      26.40024544      21.02589624      11.24686022 
S      24.23097804      12.58968243      13.26765507 
S      24.33223011      10.36958375      17.40830359 
C      31.44230416      23.26744454      25.50540092 
C      30.89002467      19.73559150      27.26164289 
C      31.72725738      16.82901228      24.62015291 
C      32.76647004      18.62200219      21.13576851 
C      32.63204502      22.56060255      21.62148886 
C      28.98498069      27.76847359      28.66984963 
C      32.18909297      27.64895082      18.43772144 
C      33.10827756      17.05826502      15.38474589 
C      30.41945037      11.01406469      23.96039963 
C      27.96158678      17.56006728      32.04723757 
C      29.80690692      26.45436085      23.55429547 
C      31.49010006      22.23843402      17.33764095 
C      30.87158767      14.90076895      19.84480157 
C      28.66619347      15.07138189      26.96440545 
C      27.95916441      22.11731243      29.16255506 
C      24.81641277      24.83111902      31.06192466 
C      27.93736331      30.02259574      21.40807936 
C      30.53832800      21.62472988      13.26551979 
C      28.82142379      11.13126602      18.56609368 
C      25.21420107      13.33381805      29.50882525 
C      24.19721129      20.46336306      32.39654702 
C      26.27993845      30.05103227      25.53437996 
C      29.96709751      26.03723254      14.54585327 
C      29.74333782      13.87321504      14.94018527 
C      26.21122637      10.56707166      26.00110257 
C      19.03326219      17.10362438      31.71855062 
C      20.35193554      30.07815181      26.98261278 
C      24.84510881      29.30615273      14.49398178 
C      25.86976413      16.10796358      10.71686205 
C      22.38173403       8.62743666      21.58574653 
C      21.57486508       8.97102341      25.79476532 
C      19.33188213      12.86613099      30.24882858 
C      19.38046083      21.22781917      32.80946919 
C      19.21278890      27.08494226      30.49052058 
C      22.09302374      32.01699132      23.93010044 
C      23.21888604      31.88956116      17.81519805 
C      26.23603807      26.52736003      11.42610061 
C      25.99838040      20.59099834       9.51275744 
C      25.84868505      12.25579170      12.47059062 
C      23.46854782       8.78549423      17.08176251 
Au      19.00395697      20.18649761      19.96719687 
Ag      16.10392813      20.18521714      19.04810243 
Ag      21.18678968      20.95266469      18.17979938 
Ag      20.91733194      18.15751211      19.05251456 
Au      19.75046777      23.48683775      17.75744601 
Au      20.55781401      21.76748520      15.45299099 
Au      20.25600660      18.96775110      16.29358658 
Au      19.97671104      16.16020762      17.17281222 
Au      19.06312174      16.10022417      19.94909035 
Ag      18.16683904      16.10957215      22.74766134 
Ag      17.84369570      18.88166536      23.66081971 
Ag      17.56541381      21.69259351      24.54281528 
Au      18.29575045      23.44609125      22.30001421 
Ag      19.01859024      25.18200647      20.01454215 
Ag      17.53373866      22.69128455      19.53859622 
Au      18.27910013      20.97481559      17.25994287 
Au      18.02015693      18.16848176      18.07875536 
Au      17.12090353      18.14212002      20.88990943 
Au      16.82468309      20.92686045      21.78360264 
Au      20.03798133      13.98489323      21.88061678 
Au      19.09810259      14.06106020      24.66829186 
Au      18.75447987      16.83405190      25.60591769 
Au      18.54590518      19.65372816      26.49147416 
Au      18.24659369      22.50305057      27.29552524 
Au      18.92608002      24.35573286      25.04022599 
Ag      19.72550705      26.06449226      22.78817619 
Au      15.50682429      22.44591551      26.44622345 
Au      16.14229622      24.28470419      24.15355479 
Au      16.91437310      25.94777883      21.90287748 
Au      17.70969202      27.72298678      19.61888062 
Au      18.32475707      26.05198653      17.27327500 
Au      19.11680719      24.33510146      15.06764229 
Au      19.99295094      22.59837582      12.73652839 
Au      19.56931611      19.73313101      13.49049123 
Au      19.33644044      16.98787351      14.39450976 
Au      19.13741407      14.10146282      15.27443931 
Ag      18.10306575      14.03170292      18.02150324 
Au      17.23116065      14.05222517      20.80761886 
Au      16.39766947      14.03478847      23.69980305 
Au      16.00095023      16.80989691      24.65460162 
Au      15.75979084      19.57607423      25.50857926 
Au      17.26455648      18.96657885      15.31093082 
Ag      17.14735117      16.17639213      16.18122054 
Au      16.08667001      16.07972417      18.92593448 
Au      15.30609653      16.05581945      21.75959860 
Au      14.88758401      18.82379998      22.71650587 
Au      14.72391216      21.62437992      23.65670496 
Au      15.33685015      23.45369780      21.38125698 
Ag      16.13572956      25.20026137      19.16512200 
Au      16.79791141      23.54480944      16.80253373 
Au      17.67017276      21.80694063      14.56042253 
Au      14.66290217      22.75633785      18.62729670 
Au      15.39073806      21.02500646      16.27341087 
Au      15.13569141      18.12070605      17.12195249 
Au      14.16838513      18.05586118      19.97381252 
Au      13.89513115      20.93166352      20.93026951 
Au      13.23362781      20.15859926      18.14287818 
Ag      13.30871713      15.14695266      19.54599625 
Au      12.29870195      17.24658118      22.27933592 
Au      12.04164070      19.84187120      23.23380503 
Au      12.40423111      23.29534018      22.11598675 
Au      13.08905380      24.99427709      20.02768199 
Au      14.19356089      25.02668470      16.64912971 
Au      14.88959076      23.45650699      14.45182190 
Au      15.24445535      20.03615463      13.42131954 
Au      14.97899559      17.33632737      14.16250024 
Ag      14.20935355      15.31050793      16.81537542 
Ag      12.38932619      17.45807256      17.77459072 
Au      11.58108838      19.31321996      20.29225123 
Au      11.86888581      22.31996671      19.37224050 
Au      12.83383886      22.38699795      16.39669386 
Au      13.14600367      19.37929911      15.42067796 
Au      15.38482627      13.30883726      18.56728660 
Au      14.61370998      13.26071991      21.58111442 
Au      13.72702679      15.09620549      23.83958328 
Au      13.34259128      17.87315185      24.96861289 
Au      13.23124784      20.79675096      25.95094967 
Au      13.39789568      23.74841969      24.93420245 
Au      14.03305795      25.68640100      22.69625189 
Au      15.01496381      27.50066912      20.48682040 
Au      15.76431961      27.44006557      17.52728395 
Au      16.50713484      25.84817308      15.02973055 
Au      17.46986505      24.01470348      12.78805106 
Au      17.63167916      21.11860017      11.84007327 
Au      17.31009663      18.15407296      12.54598797 
Au      17.26845190      15.27904521      13.45552972 
Au      16.36585050      13.54167501      15.72506055 
Ag      16.78142965      11.60382752      25.45506070 
Au      16.76278875      14.76931574      26.48996374 
Ag      16.66811462      17.53656728      27.46772886 
Au      16.48810130      20.35806418      28.26523358 
Au      15.33703520      23.18068322      29.41247056 
Au      16.71318980      25.06023618      26.86031974 
Ag      17.55080590      26.84639601      24.68747691 
Au      18.31003350      28.47028552      22.38490215 
Au      18.28103961      30.72396667      20.04321133 
Au      19.62872150      28.59550295      17.59559239 
Au      20.58807809      26.93070870      15.44732673 
Au      21.33890447      25.15542650      13.25585987 
Au      21.49072944      23.68746004      10.33974142 
Au      21.71098227      20.49421294      11.65743882 
Au      21.56869661      17.71435459      12.48999107 
Au      21.26154749      14.95327197      13.41777846 
Au      20.32338474      11.83544791      13.62179244 
Au      19.88063636      11.90686094      17.10302904 
Au      19.11933155      11.93289946      19.88246737 
Au      18.21684206      11.98520510      22.70129241 
Au      11.28067050      14.23246237      17.41932165 
Au       9.34685974      18.28274104      22.82729183 
Au      10.02941592      24.89575591      20.85549711 
Au      12.21301165      25.07608360      14.20739525 
Ag      12.94027095      18.50869637      12.25311707 
Au      11.90215198      27.68080341      21.98475804 
Ag      10.73364625      18.84501545      25.91017866 
Ag      12.93743444      11.90773885      19.31146736 
Au      15.47064696      16.60963724      10.75915582 
Au      15.03646162      26.35839802      12.45400778 
Ag      14.44399672      26.65585329      25.55503469 
Au      17.56137499      28.76386811      15.16914947 
Ag      19.31759217      18.93363552      10.41018981 
Au      16.84470814      10.83398323      17.47262031 
Au      13.79747855      15.73146876      27.14352891 
S      11.18407694      23.02097005      14.68076449 
S      11.32644711      18.49383411      14.05105624 
S      10.20044510      16.27634436      17.77925011 
S       9.18758876      19.47765602      20.81325954 
S       9.79148395      23.56920902      18.93633162 
S      13.10726587      27.15757545      13.56499323 
S      10.09923247      26.33395489      22.71746626 
S       9.30151956      17.15652192      24.88499851 
S      12.06996848      12.04906122      17.05172775 
S      14.07480389      18.40876489      10.12208412 
S      12.85602057      26.49578659      18.09363816 
S      11.02857111      22.04498917      23.71286591 
S      11.67718591      15.02004100      21.49508560 
S      14.00547749      15.07820432      14.32759152 
S      14.67505247      22.17208787      12.35268289 
S      16.86910899      25.70167954      11.13423616 
S      13.51011510      29.25054018      21.30216879 
S      11.51165274      20.40312186      27.60845614 
S      13.46312065      11.11886167      21.53449110 
S      16.77884865      14.68567531      11.12867045 
S      18.18964512      20.92893181       9.49297596 
S      15.86868886      29.69156404      16.54139497 
S      12.69676431      25.30717073      26.64965071 
S      12.92592694      13.96037739      25.83271057 
S      16.33389445      11.13550427      15.18091328 
S      20.72306498      16.93257067      10.33665731 
S      19.34217955      28.20484731      13.73249130 
S      15.86235118      28.60211464      25.20376920 
S      14.58330495      17.20335461      28.80949147 
S      17.44943161      10.14653669      19.64462023 
S      20.53654113      10.27370387      15.36184873 
S      20.25295429      13.36789471      11.83761938 
S      22.45609427      21.67138659       9.61930049 
S      20.62626015      25.77728151      10.98508309 
S      19.66425196      31.00439377      18.16346253 
S      16.97101174      30.51356625      21.98596029 
S      16.12775372      25.39092640      29.23616974 
S      14.60362002      20.96213925      29.71796543 
S      16.73958461      12.61086096      27.64984371 
S      16.60527008      10.29804628      23.42788269 
C       9.51523213      23.34867418      15.35783401 
C      10.00725611      19.73256675      13.76904003 
C       9.18283933      16.60797841      16.29028695 
C       8.14622564      18.51647320      19.65546517 
C       8.29186205      22.53714116      19.13002929 
C      12.02909645      27.74865240      12.19794176 
C       8.63850543      27.43616362      22.53527069 
C       7.62867864      17.46948283      25.58478882 
C      10.55329657      11.00396562      17.07720945 
C      12.90899878      17.64665151       8.91915266 
C      11.14671655      26.51100753      17.43560976 
C       9.28214108      22.15626481      23.17470412 
C       9.87296283      15.00132087      21.16930423 
C      12.23671202      15.01132865      13.84593028 
C      12.95160164      22.08532980      11.73790798 
C      16.13634227      24.69246855       9.78727646 
C      12.83769983      29.96400809      19.75091744 
C      10.46137152      21.90211557      27.47639806 
C      11.97718285      11.40645876      22.57272769 
C      15.55244683      13.33319407      11.31172901 
C      16.75233330      20.37773938       8.50236550 
C      14.43044785      30.05230637      15.46788713 
C      11.07460512      26.06087898      26.26023080 
C      11.10072880      14.05612896      25.92862660 
C      14.63944474      10.50120012      14.90568307 
C      22.04637510      17.34841286       9.13219916 
C      20.28316358      29.77640877      13.59752424 
C      16.24185070      29.16549789      26.91316980 
C      15.07291817      16.05381451      30.15853975 
C      18.46758122       8.65029863      19.32819997 
C      19.29901813       8.95320600      15.07060544 
C      21.55942781      12.84541047      10.66395440 
C      21.56529773      21.18335312       8.09164255 
C      21.78209551      27.02966901      10.31164896 
C      18.72750382      32.02225751      16.95952671 
C      17.53182361      31.81638070      23.14406803 
C      14.68273970      26.49030570      29.49266486 
C      15.02660382      20.52619747      31.44686790 
C      15.08906950      12.22783073      28.35751786 
C      17.47844903       8.70941140      23.69430921 
H      31.89938255      22.28803355      25.31650688 
H      32.04512724      23.81533087      26.23880747 
H      31.39449951      23.82569011      24.56491903 
H      31.57181240      19.71338226      26.40223901 
H      31.43070978      19.42820729      28.16401403 
H      30.49692366      20.75110098      27.37895507 
H      32.21004505      17.79407560      24.42172153 
H      32.49493066      16.06096300      24.76813063 
H      31.10109061      16.92084565      25.51368385 
H      33.74186409      18.47730252      20.65823975 
H      32.32626734      17.66048139      21.42020640 
H      32.88349341      19.24397056      22.03210402 
H      33.51291847      23.21003726      21.56389609 
H      32.53890526      21.95811403      20.71294779 
H      32.72152322      21.89616544      22.48996465 
H      29.95373677      28.04040007      28.23400052 
H      29.12541015      26.96902759      29.40248594 
H      28.54456039      28.64525035      29.15831452 
H      32.06648447      28.46417011      17.71458256 
H      33.12883268      27.12104366      18.23953215 
H      32.20285771      28.05833183      19.45158403 
H      33.09642928      16.63797412      14.37222832 
H      33.72976734      16.43458207      16.03769844 
H      33.50232921      18.07782929      15.35893353 
H      30.13579148       9.95551993      23.93808492 
H      30.94130794      11.23367741      24.89937346 
H      31.07673115      11.23618393      23.11514170 
H      28.71704113      18.30582540      32.32188257 
H      28.45278538      16.68552206      31.61184410 
H      27.39877783      17.26269708      32.93946705 
H      30.48972111      26.86941721      22.80264704 
H      30.09550487      25.42391501      23.77791796 
H      29.83440412      27.06034562      24.46871316 
H      31.97723066      21.61156033      16.58127863 
H      31.77640171      21.90074621      18.33860489 
H      31.76017630      23.29214447      17.20226120 
H      31.43779118      14.98963716      18.90996863 
H      31.05337211      13.92400653      20.30974438 
H      31.15931400      15.69860440      20.53569414 
H      29.04445287      14.08865043      26.65581587 
H      28.73390578      15.17637449      28.05434285 
H      29.24399059      15.86615580      26.48408874 
H      28.28433628      23.12336481      29.45562309 
H      28.62597861      21.72959379      28.38707234 
H      27.96439543      21.45058919      30.03395671 
H      23.97564691      24.38928351      31.61107589 
H      25.37060720      25.51416843      31.71523653 
H      25.47062331      24.03491832      30.68966252 
H      28.77511532      30.69725065      21.19659256 
H      28.25933032      29.21391791      22.07384879 
H      27.11941175      30.57873390      21.88257868 
H      31.48730310      21.34273374      12.79668350 
H      30.70673223      21.96228814      14.29345986 
H      30.06972444      22.43668962      12.69509003 
H      28.50626870      10.99301718      17.52420095 
H      29.51255168      10.33083964      18.85163914 
H      29.30613872      12.10821899      18.66951611 
H      24.63542494      12.47459587      29.14762013 
H      25.64764011      13.10650852      30.48912583 
H      26.00047520      13.57691154      28.78541017 
H      24.77391590      21.38639913      32.53227934 
H      24.82897785      19.70274304      31.92643908 
H      23.83590423      20.10812601      33.36855673 
H      27.19205830      30.21737449      24.94924571 
H      26.44995653      29.23340671      26.24136331 
H      26.01947958      30.96706547      26.07804167 
H      30.05169305      26.99298853      14.01683290 
H      30.70713248      25.33291330      14.14601206 
H      30.14580810      26.18329597      15.61656692 
H      30.01917416      13.59042283      13.91768832 
H      30.11417330      13.11825609      15.64423305 
H      30.16851295      14.85051592      15.19055943 
H      26.17847328       9.47263999      25.94883349 
H      26.49627315      10.87951482      27.01307377 
H      26.93409004      10.95958715      25.27743753 
H      18.31953191      16.28692901      31.55392992 
H      18.52555952      18.06434510      31.58331638 
H      19.44932691      17.03207045      32.73010367 
H      19.44072154      30.04165871      27.59216612 
H      20.07390696      30.22579064      25.93338875 
H      20.97889301      30.91034592      27.32281427 
H      25.73659781      29.87737220      14.21011945 
H      24.02052930      29.99389237      14.71885117 
H      24.55032703      28.63653616      13.67987596 
H      25.40708542      16.74397970       9.95182074 
H      25.14426081      15.35818098      11.04907755 
H      26.75401366      15.61642463      10.29579528 
H      21.92870301       8.31952418      20.63528554 
H      21.59270518       8.86077765      22.30827929 
H      23.02092692       7.82289343      21.96749375 
H      21.72232986       8.34606754      24.90625378 
H      21.19860707       8.35362386      26.61903550 
H      22.52475851       9.43662708      26.07462148 
H      19.66469736      11.96026457      30.76932101 
H      18.37358195      12.68210125      29.75053483 
H      19.23257452      13.68593956      30.97058393 
H      19.10204996      20.19395417      33.04536688 
H      19.02278280      21.89615283      33.60151598 
H      20.46723326      21.30313629      32.70784212 
H      19.45659238      28.00630885      29.94710027 
H      19.39419434      27.22635886      31.56238186 
H      18.16941425      26.80118396      30.31591181 
H      22.14956598      33.03680868      23.53194726 
H      23.09845377      31.61028227      24.07766870 
H      21.54965246      32.02348315      24.88227127 
H      23.63769457      31.71073569      16.81735068 
H      23.59613147      32.84277871      18.20387797 
H      22.12431990      31.90765091      17.76986336 
H      26.51836562      26.46283047      10.36886729 
H      27.07857820      26.24554163      12.06624622 
H      25.91798587      27.55009196      11.66073882 
H      26.70506611      21.11054215       8.85506105 
H      24.97004508      20.87077076       9.25897407 
H      26.13484266      19.50698434       9.41543205 
H      25.93193882      12.90547703      11.59139276 
H      25.85381684      11.20571481      12.15577089 
H      26.67854844      12.45397814      13.15570936 
H      24.14444144       8.13807108      16.51088196 
H      22.53946108       8.94738869      16.52397969 
H      23.25624049       8.32730232      18.05527993 
H       8.92957008      23.87150550      14.59335251 
H       9.55143026      23.93448749      16.28136402 
H       9.05733632      22.37373476      15.56729987 
H       9.39051588      19.38894462      12.93032928 
H      10.41657335      20.72466225      13.55364334 
H       9.39263777      19.78571886      14.67615069 
H       8.48241931      15.77931033      16.14228343 
H       9.80174854      16.75789344      15.39986436 
H       8.61951496      17.52800005      16.49193319 
H       8.11138821      19.07473941      18.71161175 
H       7.13779361      18.44573453      20.07856658 
H       8.55492564      17.51868742      19.46930110 
H       8.21382327      21.91238927      18.23139871 
H       7.42194010      23.20059863      19.19225181 
H       8.34740826      21.89175813      20.01213843 
H      12.49591125      28.64089608      11.76458625 
H      11.05438370      28.01080637      12.62543516 
H      11.90387077      26.98325559      11.42729948 
H       7.73879521      26.83666143      22.71611517 
H       8.59410797      27.88254946      21.53823716 
H       8.71684657      28.22422610      23.29336862 
H       6.89205373      16.90285218      25.00392014 
H       7.37493065      18.53289593      25.56493267 
H       7.63187889      17.11291920      26.62177140 
H       9.98215013      11.18968933      16.16049599 
H       9.93061640      11.21867422      17.95018018 
H      10.87358631       9.95560054      17.10375687 
H      13.46513483      17.38371884       8.01195605 
H      12.14461447      18.39429216       8.67608515 
H      12.43011147      16.75331577       9.32932841 
H      11.15140944      27.10998427      16.51698701 
H      10.49665086      26.96917916      18.19125512 
H      10.79936368      25.49810308      17.21744599 
H       8.93617193      23.17499529      23.38700615 
H       8.70109328      21.42540918      23.75073718 
H       9.18208077      21.94357138      22.10723236 
H       9.61732434      14.00870666      20.77835365 
H       9.59752359      15.76063535      20.43246141 
H       9.34874124      15.18416741      22.11471669 
H      12.16364657      15.13614019      12.75864072 
H      11.65635351      15.79244510      14.34469208 
H      11.85707478      14.02507002      14.14002421 
H      12.95314160      21.44542972      10.84676242 
H      12.63033050      23.10151166      11.47779917 
H      12.27913984      21.67416371      12.49620868 
H      15.60937495      25.36005852       9.09650307 
H      15.45509706      23.93407759      10.18836262 
H      16.96882709      24.19646784       9.27230863 
H      13.63280564      30.58372212      19.31764545 
H      11.96965136      30.58602726      19.99597035 
H      12.56142388      29.17595275      19.04175733 
H      10.99342211      22.73170387      27.95835012 
H       9.51900725      21.70496207      28.00072230 
H      10.26627123      22.15958362      26.42932893 
H      11.24249779      10.62481708      22.34771046 
H      11.54870421      12.39795584      22.38659729 
H      12.28496557      11.33616306      23.62330839 
H      15.07858980      13.15290972      10.34041457 
H      14.80157155      13.58740682      12.06884435 
H      16.10710025      12.44122240      11.62874254 
H      17.12420925      20.05682990       7.52188537 
H      16.07231971      21.22844798       8.37619546 
H      16.21427092      19.55518231       8.98357986 
H      14.68730580      30.89192196      14.81179535 
H      13.59989867      30.33936449      16.12443128 
H      14.14137551      29.18120159      14.87119917 
H      10.29173956      25.31401215      26.43755173 
H      11.02256606      26.39878255      25.22125571 
H      10.93007556      26.91202512      26.93653624 
H      10.69803210      13.34791203      25.19431739 
H      10.73297877      15.06231252      25.70452334 
H      10.79311145      13.75772568      26.93750852 
H      14.36136682      10.76270799      13.87729015 
H      13.92230753      10.94793639      15.60242599 
H      14.64967763       9.41110359      15.01817048 
H      21.60988077      17.35300383       8.12623738 
H      22.82007708      16.57330075       9.19050119 
H      22.49325079      18.32388332       9.35101392 
H      19.68571435      30.49634686      13.02637743 
H      21.21335595      29.55732431      13.05883235 
H      20.52165447      30.18202354      14.58593228 
H      16.98948709      29.96545836      26.84779953 
H      16.64149611      28.35099865      27.52660060 
H      15.32891804      29.56273023      27.37178604 
H      14.17548686      15.58665557      30.57957505 
H      15.56860807      16.65296830      30.93259187 
H      15.76415716      15.28460488      29.79810466 
H      17.80984190       7.84824944      18.97382888 
H      18.92682780       8.35878025      20.28082090 
H      19.25074277       8.85207059      18.59028353 
H      19.63540660       8.36474140      14.20894663 
H      18.30572136       9.37241366      14.88192139 
H      19.26908988       8.31602176      15.96237849 
H      21.71935516      13.68355494       9.97452459 
H      21.19547269      11.97317851      10.10841042 
H      22.48948983      12.59971847      11.18759236 
H      21.85464995      21.88618599       7.30167103 
H      20.48065048      21.20072615       8.23887313 
H      21.88928515      20.17191672       7.82002870 
H      21.62284292      27.09883617       9.22917480 
H      22.82336180      26.76394015      10.52429081 
H      21.53049971      27.98857865      10.78099501 
H      19.28019857      32.02019330      16.01260971 
H      18.67827650      33.04375660      17.35449769 
H      17.71991326      31.62641036      16.79950677 
H      17.11773973      32.77634330      22.81403490 
H      18.62518432      31.86944939      23.18231327 
H      17.12635814      31.55660467      24.12982909 
H      14.99588902      27.51666159      29.26813541 
H      14.39204286      26.41616151      30.54701957 
H      13.84682421      26.20545978      28.84552439 
H      14.91702308      19.43877825      31.54003922 
H      14.31112245      21.02490942      32.11131258 
H      16.04880118      20.82982578      31.69702500 
H      15.10390281      11.18038874      28.68140174 
H      14.29249475      12.38381146      27.62369097 
H      14.91876768      12.87771274      29.22373280 
H      17.66852394       8.25957798      22.71232983 
H      16.81633102       8.05329791      24.27214767 
H      18.42147334       8.85504415      24.23314865 
