646
Properties=species:S:1:pos:R:3 i=91 optimized=T E=-10243.312953104 pbc="F F F" jobid=246_80-Ag-69_9-000007-PBE
Ag      21.90132404      20.21156603      20.91867171 
Ag      24.73680819      20.23942403      21.85256981 
Ag      20.47050658      22.68626611      20.43897704 
Au      19.74635356      20.95012672      22.73329452 
Ag      20.04204388      18.16147967      21.87922802 
Ag      21.14007758      23.48731733      23.16356809 
Au      20.37391857      21.75878975      25.46622132 
Ag      20.70967719      18.96141850      24.64381209 
Ag      21.00819700      16.18484186      23.74563255 
Ag      21.90310913      16.12672290      20.95300066 
Ag      22.78583845      16.11456684      18.09912394 
Ag      23.08140513      18.89206776      17.22368194 
Ag      23.34105934      21.70429727      16.36486256 
Ag      22.66337632      23.45864249      18.59468753 
Au      21.87491433      25.15028667      20.84997188 
Ag      23.37014221      22.70913724      21.35942180 
Ag      22.60788271      20.99812652      23.65561436 
Ag      22.91036571      18.21276354      22.79845024 
Au      23.78112265      18.16162388      20.00709087 
Ag      24.08565156      20.95029571      19.11810087 
Ag      20.90060623      14.03633218      19.04586786 
Ag      21.86929236      14.05315188      16.19335166 
Ag      22.15592421      16.82611986      15.31997343 
Au      22.39181320      19.70032843      14.43892409 
Ag      22.71783102      22.53029543      13.58030834 
Ag      21.99129761      24.28242037      15.88046734 
Ag      21.21462408      26.07391331      18.16559940 
Ag      20.49672612      27.80148711      20.43551656 
Au      25.46700419      22.48457838      14.53841217 
Ag      24.83562679      24.27111292      16.72471377 
Ag      24.04814944      25.95398496      18.98810583 
Au      23.23266877      27.67436136      21.20835534 
Au      22.52516308      26.03034585      23.58674764 
Au      21.79263345      24.33033222      25.82567335 
Ag      21.02479217      22.58479968      28.19337231 
Ag      21.42952427      19.79922700      27.42454188 
Ag      21.67129791      17.00202223      26.51558915 
Ag      21.93063096      14.16608646      25.62873778 
Au      22.92022479      14.05519651      22.87154429 
Ag      23.67802327      14.07775831      20.03296181 
Ag      24.57467876      14.05825099      17.13571340 
Ag      24.97577349      16.77564565      16.23297463 
Ag      25.19387034      19.60492900      15.40298025 
Ag      23.63934355      19.01183372      25.56597557 
Au      23.78567740      16.22733835      24.67782014 
Ag      24.79791430      16.09601747      21.89457822 
Ag      25.53085599      16.09289728      19.05979622 
Ag      25.96149194      18.86267732      18.14627241 
Ag      26.13302776      21.65850161      17.24528091 
Ag      25.56858583      23.50337318      19.48432730 
Ag      24.74189075      25.20019428      21.72912939 
Ag      24.10723627      23.53987819      24.10277333 
Au      23.25242960      21.81815533      26.33105704 
Ag      26.24533367      22.77508814      22.25288438 
Ag      25.49674043      21.04971598      24.58875892 
Ag      25.78140793      18.18278192      23.73637619 
Ag      26.61510896      18.15566961      20.88495703 
Ag      26.93326366      20.96754869      19.97653034 
Au      27.58886623      20.22811321      22.72779391 
Ag      27.58729623      15.32339003      21.19763656 
Ag      28.39603204      17.33553147      18.73535794 
Ag      28.61733331      19.98169264      17.74781856 
Ag      28.38852294      23.24510977      18.81944563 
Au      27.72200712      25.00924606      20.84339912 
Au      26.66166518      24.93656312      24.22321385 
Ag      25.97981350      23.40628984      26.44511219 
Ag      25.72573967      20.09372818      27.32850827 
Au      25.89523962      17.42869896      26.61777738 
Ag      26.78731174      15.45760802      23.90645690 
Au      28.53908668      17.55112685      22.91213895 
Ag      29.29383921      19.39926289      20.57819959 
Ag      29.01892068      22.38368971      21.54862502 
Ag      28.04605363      22.39309806      24.52363527 
Ag      27.83835334      19.32277777      25.42246952 
Ag      25.64158685      13.38605388      22.20418147 
Au      26.30358409      13.37678355      19.31284320 
Ag      27.32408265      15.12693996      17.08747406 
Au      27.56417245      17.92311888      15.97984244 
Ag      27.73680045      20.74722046      14.94560528 
Ag      27.68584715      23.68032022      15.95881843 
Ag      26.85537462      25.69339488      18.14161808 
Ag      25.99428370      27.48817356      20.46187696 
Au      25.06515819      27.44145838      23.38983187 
Au      24.34523200      25.84529668      25.79941965 
Au      23.49249546      24.07310429      28.07591714 
Ag      23.51287787      21.18991274      29.07618725 
Ag      23.66447714      18.25986997      28.32136073 
Ag      23.82807315      15.39822205      27.42854696 
Ag      24.78190782      13.57931752      25.08123096 
Au      24.28997408      11.64295915      15.34009937 
Ag      24.06544645      14.82732084      14.32709444 
Au      24.20477042      17.58784214      13.46966597 
Au      24.49226102      20.41308974      12.68191830 
Au      25.59498469      23.24456503      11.54157193 
Au      24.13682073      25.06831148      14.05849091 
Ag      23.31468203      26.77324361      16.28436958 
Ag      22.65694853      28.55160722      18.52457386 
Ag      22.40472974      30.55655162      20.89651272 
Ag      21.30107207      28.59797301      23.22406564 
Ag      20.34862329      26.88981338      25.42110024 
Au      19.60427553      25.09050490      27.62103010 
Au      19.46003416      23.62955614      30.53736174 
Ag      19.23277454      20.50063072      29.24640484 
Au      19.54400590      17.73304204      28.35768060 
Ag      19.83102435      14.92317261      27.49281597 
Ag      20.44179408      11.86843998      26.93895708 
Ag      21.08607105      12.00988338      23.82479047 
Au      21.87144018      11.99073960      21.01447309 
Au      22.69876986      12.07592516      18.18883897 
Ag      29.57040101      14.47395749      23.34781038 
Ag      31.17127600      18.42218755      18.01490088 
Ag      30.65393717      24.76492057      20.18811290 
Au      28.69328157      24.81182968      26.71835219 
Ag      27.93799890      18.37353365      28.56669065 
Ag      28.96832079      27.50787038      19.08011263 
Ag      30.15567015      18.66857819      14.81813251 
Au      28.08208218      11.80390042      21.84003392 
Ag      25.42996334      16.53716196      29.94415078 
Ag      25.92886662      26.10084902      28.25942504 
Au      26.59787705      26.72191341      15.33003236 
Au      23.12268520      28.85848885      25.71153726 
Ag      21.67344002      18.99427759      30.43822954 
Ag      23.97471550      11.07813165      23.35702990 
Au      27.09500386      15.60520468      13.95627894 
S      29.66379895      22.69105131      26.42282446 
S      29.60989124      18.24457419      26.84217308 
S      30.77892933      16.48401846      22.80726010 
S      31.65823134      19.84192925      19.88623518 
S      31.09563945      23.58995742      22.23882872 
S      27.93335863      26.98713813      27.21122700 
S      30.74063697      26.12525926      18.20163675 
S      31.28697378      16.96760925      16.10107614 
S      28.85822210      12.26196278      24.02256829 
S      26.73242659      18.43250708      30.65554436 
S      27.96574774      26.51537184      22.83287403 
S      29.66884318      22.16450739      16.97233558 
S      29.15398409      14.99118845      19.20709010 
S      26.73712535      15.05434109      26.38705210 
S      26.11310009      22.14957761      28.64646317 
S      24.10923713      25.67647119      29.80219010 
S      27.47933205      29.30210024      19.63628897 
S      29.39984923      20.23014037      13.16326511 
S      27.33745018      11.16077287      19.70639098 
S      24.11463175      14.54411401      29.73579359 
S      22.69564229      20.97927392      31.39896434 
S      24.91978383      29.67841384      24.40728858 
S      28.19730567      25.38611875      14.21616922 
S      27.89897407      13.70206769      15.10504732 
S      24.49688276      11.20422468      25.72360682 
S      20.38140540      16.91427550      30.50120874 
S      21.28051501      28.45282728      27.11925238 
S      25.17467925      28.42867197      16.12573144 
S      26.39067253      17.23103945      12.39746039 
S      23.36228832      10.05099894      21.23660173 
S      20.26619089      10.14964732      25.25593124 
S      20.79745160      13.15761790      28.93839779 
S      18.45704307      21.66328500      31.33353756 
S      20.38321846      25.69074384      29.85750309 
S      20.97921770      31.02215969      22.78410839 
S      23.97478408      30.61445282      19.07518795 
S      24.75803404      25.43644716      11.65669967 
S      26.40529201      21.05222272      11.25910424 
S      24.13137122      12.58371240      13.19384019 
S      24.47937536      10.54262823      17.41391978 
C      31.37090752      22.99904949      25.82756934 
C      30.96461019      19.39068273      27.31031584 
C      31.79944216      16.94387040      24.25934701 
C      32.84288456      18.89853739      20.92628210 
C      32.61431677      22.58863011      22.01426020 
C      28.98562449      27.53970652      28.61815766 
C      32.25147831      27.17242545      18.33762648 
C      33.03753288      17.05223062      15.52769365 
C      30.38142968      11.23900944      24.18261586 
C      27.85931410      17.74772886      31.94378761 
C      29.67255072      26.66691800      23.48880897 
C      31.47549131      22.48497068      17.12889093 
C      30.98381891      14.92096506      19.39399356 
C      28.38658632      14.66887072      27.10239217 
C      27.70287355      22.03218915      29.56415412 
C      24.78105460      24.63941297      31.15755913 
C      28.11195071      29.99456225      21.21749517 
C      30.53402247      21.67419243      13.22601535 
C      28.82523666      11.24192866      18.63653257 
C      25.30743722      13.16797878      29.48402576 
C      24.05824395      20.41908676      32.49466903 
C      26.29880981      29.97490703      25.57715352 
C      29.82391325      26.17896356      14.51746146 
C      29.71894076      13.71192726      14.86909908 
C      26.12961095      10.40386172      25.97923555 
C      19.05126760      17.27535174      31.71737145 
C      20.29688788      30.00058644      26.98516736 
C      24.78442166      29.38889949      14.60622441 
C      25.98928187      16.24090331      10.90231205 
C      22.26629841       8.66773412      21.74995410 
C      21.54694796       8.90416293      25.68960088 
C      19.51973282      12.63435074      30.14856372 
C      19.33206021      21.22981933      32.88776697 
C      19.26910433      26.98451237      30.52365415 
C      21.98697589      32.09163362      23.89111479 
C      23.46865594      32.01578104      18.00304875 
C      26.17242081      26.56816785      11.37204116 
C      26.03987326      20.60509256       9.51969313 
C      25.73381812      12.22229063      12.37232461 
C      23.75554850       8.87578582      17.17822742 
Ag      19.07102013      20.17609114      20.00509768 
Ag      16.21592843      20.16510381      19.12291444 
Ag      21.22061704      20.96282519      18.17611879 
Ag      20.95067510      18.15734573      19.06622484 
Ag      19.79993395      23.48163105      17.73615375 
Ag      20.57580568      21.74034528      15.47616360 
Ag      20.25088346      18.95660694      16.30850734 
Ag      20.02592865      16.16175147      17.21686829 
Au      19.08386026      16.12604655      19.98792609 
Ag      18.24508245      16.12124305      22.83853402 
Ag      17.87356469      18.89219632      23.70702174 
Ag      17.59258981      21.69202029      24.55794749 
Au      18.27688828      23.46982179      22.31120926 
Au      19.07632996      25.20072515      20.00667133 
Au      17.59655949      22.69208933      19.55320362 
Ag      18.33845978      20.97459424      17.29464704 
Ag      18.09170966      18.17268006      18.14937305 
Ag      17.16905900      18.13251517      20.93757724 
Ag      16.89250720      20.92634693      21.81497301 
Au      20.08527726      14.00858304      21.91181545 
Au      19.19697052      14.09257106      24.74111535 
Au      18.83065596      16.87340750      25.65223123 
Au      18.55027911      19.70289055      26.54422202 
Ag      18.22914668      22.53466903      27.32539872 
Au      18.91122958      24.30771635      25.03174439 
Au      19.73025832      26.11415013      22.74237976 
Ag      15.46843520      22.46039496      26.37985354 
Ag      16.07404085      24.23142359      24.16841475 
Ag      16.90120890      25.97201175      21.85488838 
Ag      17.76128388      27.71988958      19.61702094 
Ag      18.40025393      26.04446439      17.28206415 
Au      19.11790224      24.27475436      15.05158691 
Ag      19.95645303      22.53796398      12.77823725 
Ag      19.58904796      19.73390603      13.52989252 
Ag      19.34006269      16.94357782      14.44032440 
Au      19.14385303      14.17209142      15.35860420 
Ag      18.12950754      14.01887185      18.12106797 
Ag      17.33314700      14.06721632      20.92361067 
Ag      16.48156240      14.01542548      23.82415861 
Ag      16.05793389      16.81755910      24.71847006 
Ag      15.76417956      19.60690402      25.52989516 
Au      17.38822469      18.93155079      15.36962714 
Ag      17.19918245      16.19669071      16.27232412 
Ag      16.17641628      16.03444266      19.05155699 
Au      15.42269633      16.09160233      21.90470910 
Ag      14.97693177      18.83826924      22.76766085 
Ag      14.80682060      21.61582393      23.64886467 
Ag      15.39049577      23.48880192      21.40337749 
Ag      16.25524140      25.21391032      19.13748868 
Au      16.85661085      23.49591877      16.77565211 
Ag      17.73245976      21.76376854      14.57856688 
Au      14.71935101      22.69549573      18.67058126 
Au      15.47617830      20.97153813      16.34013822 
Ag      15.24341579      18.13602838      17.22348871 
Ag      14.31048250      18.07712350      20.02446037 
Ag      14.00413812      20.91620099      20.91753201 
Ag      13.36840419      20.15659674      18.19750948 
Ag      13.39723592      15.25734573      19.67144727 
Ag      12.49258912      17.26639909      22.24192538 
Au      12.28450654      19.89162674      23.13839343 
Ag      12.61552916      23.24078258      22.03578802 
Ag      13.30477300      24.99599083      19.94719315 
Au      14.35004813      24.96071030      16.72680351 
Ag      15.03326287      23.36122411      14.47562949 
Ag      15.38248812      20.09790313      13.53465550 
Ag      15.13852905      17.33694446      14.28285946 
Ag      14.29050371      15.37809013      16.96944516 
Ag      12.47413115      17.47542578      17.87868889 
Ag      11.67695626      19.32376378      20.29102816 
Ag      11.96409659      22.36576950      19.33521776 
Ag      12.93226512      22.37954247      16.38400932 
Au      13.30533347      19.39239527      15.46469081 
Ag      15.41532512      13.28291650      18.72320635 
Au      14.70771099      13.37383517      21.64432851 
Au      13.82238879      15.11228403      23.97642552 
Ag      13.42055535      17.90246851      24.96729485 
Ag      13.20332715      20.74014869      25.88595961 
Ag      13.29171454      23.67937443      24.85607164 
Ag      14.09594623      25.68295241      22.70828921 
Ag      14.96118292      27.45253825      20.39551538 
Au      15.88199970      27.43137895      17.46473654 
Ag      16.58870403      25.78823090      15.05751617 
Ag      17.44078432      24.00984979      12.76212840 
Au      17.66770756      21.07884742      11.86522588 
Ag      17.35657281      18.18139842      12.60622122 
Ag      17.21213832      15.26487363      13.51752316 
Au      16.35165520      13.57490451      15.89431293 
Au      16.62700591      11.59405069      25.56805046 
Ag      17.01185265      14.80751688      26.58475359 
Ag      16.74632752      17.59183261      27.50598007 
Au      16.43215235      20.45134322      28.22677209 
Ag      15.46141158      23.17646867      29.37581649 
Au      16.72932957      25.04923712      26.87484410 
Au      17.56246017      26.76461092      24.58133789 
Ag      18.36719546      28.53269547      22.37632900 
Ag      18.59097180      30.56367956      19.99161334 
Ag      19.81251845      28.58182983      17.67393324 
Au      20.57802959      26.83931857      15.50139215 
Au      21.29176727      25.04291488      13.23951474 
Ag      21.59048763      23.57872902      10.45009600 
Ag      21.72190800      20.47109163      11.67600012 
Au      21.50199188      17.68233248      12.59698149 
Ag      21.19709274      14.87761356      13.42603761 
Ag      20.45535692      11.85532889      13.89001174 
Au      19.92753161      11.99199847      17.15758376 
Ag      19.17598251      11.97868656      19.99902264 
Ag      18.29641915      12.00219746      22.82171532 
Ag      11.40402466      14.52111302      17.57988994 
Au       9.58838821      18.45258475      22.77042402 
Ag      10.38064894      24.82070323      20.74716992 
Ag      12.48117390      24.89726945      14.31227309 
Ag      13.04051645      18.43355211      12.42278314 
Ag      12.07279999      27.57285924      21.73235786 
Ag      10.77334708      18.82696945      25.94393528 
Au      12.88173579      11.82442728      19.13638287 
Ag      15.48087390      16.58418650      11.03018326 
Ag      15.09355773      26.18189663      12.54537501 
Au      14.25260955      26.62726983      25.65211598 
Ag      17.75996746      28.66413012      15.35369299 
Ag      19.29386066      18.98009350      10.34675031 
Au      17.03965056      10.82406320      17.68197311 
Ag      14.10589628      15.74408241      27.01743239 
S      11.32158167      22.80024363      14.52429922 
S      11.48862470      18.26899849      14.26120999 
S      10.16167725      16.52509224      18.05381266 
S       9.27392485      19.80670195      20.87753681 
S       9.90932647      23.62905910      18.72177926 
S      13.19880471      27.11692970      13.70208255 
S      10.34361363      26.20350690      22.71428720 
S       9.62355635      17.09724582      24.69693748 
S      12.04244186      12.26798407      16.97408417 
S      14.13907163      18.44989351      10.28770457 
S      12.91757968      26.55265681      17.96804078 
S      11.26607508      22.12642986      23.82801300 
S      11.80885216      14.96346463      21.63752625 
S      14.14519325      15.01857178      14.47662134 
S      14.87922635      22.19381580      12.25629070 
S      16.88201892      25.68994903      11.02683512 
S      13.52729806      29.36370746      21.07900104 
S      11.50644861      20.33760169      27.66505019 
S      13.69455706      11.17878746      21.24643918 
S      16.79860404      14.58636540      11.16567681 
S      18.20631109      20.97996661       9.46836062 
S      15.99238085      29.73776370      16.65328364 
S      12.67487962      25.22330049      26.71792807 
S      13.02925793      13.84354924      25.89403921 
S      16.47355733      11.16561608      15.40946725 
S      20.56328063      16.92770821      10.46844588 
S      19.60059627      28.35411579      13.81493589 
S      15.71978001      28.34254243      24.95016910 
S      14.79345957      17.06349026      28.93390489 
S      17.60590335      10.04480024      19.83326310 
S      20.70358847      10.19911670      15.62342380 
S      20.17868331      13.17381860      11.90483879 
S      22.51759018      21.54784894       9.57444085 
S      20.58049203      25.70150779      10.98305736 
S      19.94656549      31.04325540      18.06502535 
S      17.00045289      30.51042922      21.79271021 
S      16.17929438      25.46492324      29.24873736 
S      14.54946796      20.96504613      29.68509593 
S      16.75294169      12.57765467      27.70199750 
S      16.45793723      10.45041113      23.52243860 
C       9.62470115      23.16582420      15.11940942 
C      10.12525286      19.45215779      13.94202083 
C       9.10684894      16.86413363      16.59143719 
C       8.08000820      18.91034372      19.81331934 
C       8.34872219      22.69764556      18.96606165 
C      12.09948413      27.67825911      12.33219954 
C       8.82262258      27.24020620      22.59337060 
C       7.90542966      17.15818625      25.35888674 
C      10.48036862      11.29528340      16.90051719 
C      12.95486716      17.70749930       9.08457173 
C      11.24178838      26.66593104      17.22931201 
C       9.45721111      22.39922395      23.63192399 
C       9.99477645      14.90210705      21.34893559 
C      12.43355009      14.70977205      13.87556542 
C      13.23781273      22.17251703      11.42621633 
C      16.12356636      24.66304687       9.70563208 
C      12.88183153      30.00295707      19.48221713 
C      10.41276393      21.80947103      27.54753704 
C      12.23935580      11.24022802      22.36225145 
C      15.58379288      13.22556926      11.39532095 
C      16.74834199      20.47608465       8.47845541 
C      14.59205539      30.09811070      15.52534831 
C      11.02520914      25.97113875      26.42874923 
C      11.21697893      14.02506130      26.09489922 
C      14.80478243      10.44913382      15.16942735 
C      21.92965031      17.18890731       9.26598710 
C      20.55402152      29.91772633      13.97575181 
C      16.14976769      29.17781086      26.52939044 
C      15.34829400      15.79793906      30.14873902 
C      18.69319486       8.60610444      19.47080086 
C      19.43071418       8.91635203      15.29846726 
C      21.42912496      12.59640698      10.69189078 
C      21.59758138      21.16929214       8.02956885 
C      21.70703627      27.02585733      10.40537445 
C      18.90227921      32.08980637      16.97060328 
C      17.44732088      31.88567025      22.92454770 
C      14.69612312      26.50998265      29.52250558 
C      14.99051265      20.38506850      31.36642224 
C      15.14292950      12.22283479      28.51071486 
C      17.15492936       8.78147775      23.83447395 
H      31.83461726      22.01870343      25.66119048 
H      31.92789082      23.53855230      26.60120352 
H      31.37049673      23.56313502      24.88858568 
H      31.67267195      19.43801887      26.47356417 
H      31.47770979      18.99563137      28.19431807 
H      30.58237930      20.39587844      27.51673918 
H      32.23120031      17.93353730      24.06617080 
H      32.60533185      16.20874033      24.36574903 
H      31.19439519      16.98388449      25.17206696 
H      33.77639697      18.75739047      20.37051565 
H      32.42713503      17.92921596      21.22118134 
H      33.04489461      19.49313418      21.82582395 
H      33.47562185      23.26241464      21.94393059 
H      32.54747421      21.96517672      21.11602828 
H      32.72838691      21.94584195      22.89585851 
H      29.99651009      27.73746777      28.24375484 
H      29.02730521      26.78733764      29.41055151 
H      28.55367503      28.46677610      29.01359057 
H      32.18853091      27.97064829      17.58887431 
H      33.12656359      26.54597851      18.12923138 
H      32.34981227      27.61429037      19.33317837 
H      33.09075227      16.62980787      14.51754878 
H      33.65570773      16.45190739      16.20532714 
H      33.40976011      18.08049609      15.51083011 
H      30.09022060      10.18308914      24.22121311 
H      30.87284537      11.51862684      25.12210648 
H      31.06695755      11.40349183      23.34676848 
H      28.60824421      18.51057218      32.18658276 
H      28.36388299      16.84002855      31.60098491 
H      27.26803129      17.52121530      32.83861813 
H      30.25620381      27.27360405      22.78555834 
H      30.14217955      25.68564806      23.60857247 
H      29.60271016      27.17104542      24.46038215 
H      31.98520018      21.99509633      16.29097219 
H      31.84046883      22.07148210      18.07567349 
H      31.63756578      23.56837024      17.09722591 
H      31.43995311      15.20834008      18.43918196 
H      31.26233933      13.89236617      19.65230858 
H      31.30993604      15.59869330      20.19039809 
H      28.71594599      13.70866110      26.68847826 
H      28.28668769      14.59788552      28.19200046 
H      29.10123783      15.45961148      26.84785495 
H      27.86341753      22.98090738      30.08988246 
H      28.53088746      21.85700225      28.86921478 
H      27.62528775      21.20704818      30.28161627 
H      23.93236548      24.19166555      31.68943444 
H      25.35002209      25.28483490      31.83665835 
H      25.41993554      23.84089665      30.76481238 
H      29.03993497      30.54419012      21.02517116 
H      28.28686752      29.20745526      21.96022171 
H      27.34915647      30.68378247      21.60021319 
H      31.50979760      21.38777910      12.81840329 
H      30.64891370      22.05148407      14.24765605 
H      30.09352383      22.46346562      12.60419673 
H      28.48083912      11.07986862      17.60735471 
H      29.51825684      10.44554263      18.92914938 
H      29.30624278      12.22401503      18.70972112 
H      24.72692610      12.28785803      29.18055925 
H      25.82509361      12.96178289      30.42729497 
H      26.03347100      13.40195176      28.69770569 
H      24.61111030      21.30886652      32.81931993 
H      24.74420867      19.74051408      31.97538467 
H      23.62872236      19.91798076      33.36938200 
H      27.17337657      30.25941324      24.97937580 
H      26.53295304      29.07803508      26.15943152 
H      26.02246787      30.80049305      26.24263647 
H      29.84075702      27.16402538      14.03861713 
H      30.58179820      25.53487483      14.05443916 
H      30.03375155      26.27440571      15.58880125 
H      29.94827498      13.49805765      13.81937361 
H      30.12724617      12.91469848      15.50244111 
H      30.15872333      14.67142032      15.16435755 
H      26.02638474       9.32466858      25.81953898 
H      26.43401084      10.59090171      27.01613743 
H      26.88813908      10.81029578      25.30162415 
H      18.29183337      16.48834344      31.63849563 
H      18.58650831      18.24991840      31.53158088 
H      19.49188442      17.25864651      32.72137554 
H      19.35590938      29.83523243      27.52403565 
H      20.08015920      30.24960088      25.94055674 
H      20.84952076      30.81947362      27.45931814 
H      25.68655300      29.91618658      14.27621030 
H      24.00986035      30.11823670      14.87401650 
H      24.41481444      28.74033224      13.80554567 
H      25.49504089      16.91014444      10.18735765 
H      25.32423562      15.40508054      11.14322483 
H      26.92508708      15.86608023      10.47189093 
H      21.75587978       8.28739132      20.85708721 
H      21.52218288       8.99640379      22.48425281 
H      22.88918741       7.87464704      22.18031616 
H      21.64408619       8.19971447      24.85514428 
H      21.20921890       8.36434884      26.58156430 
H      22.51500450       9.37953844      25.88267352 
H      19.85069875      11.70163161      30.61995440 
H      18.54622942      12.48137681      29.67001361 
H      19.44485339      13.42092605      30.90901395 
H      18.96018114      20.25099767      33.21350113 
H      19.08805168      21.98338361      33.64466812 
H      20.41530494      21.18268601      32.72966027 
H      19.55447042      27.92583926      30.03805355 
H      19.44119645      27.06027650      31.60368531 
H      18.21799312      26.75082638      30.31994512 
H      22.03158581      33.09332709      23.44859845 
H      22.99823198      31.69297405      24.01958988 
H      21.49240199      32.14582142      24.86794247 
H      24.00802125      31.92000988      17.05277729 
H      23.75954264      32.95430669      18.48883765 
H      22.38775100      32.01234130      17.82110027 
H      26.46896248      26.48330812      10.32025510 
H      27.01381938      26.32302802      12.02859986 
H      25.82689981      27.58887841      11.57521695 
H      26.72995786      21.15942172       8.87290101 
H      25.00184486      20.83816509       9.25509707 
H      26.22817485      19.52937034       9.41761945 
H      25.75209000      12.77395866      11.42481778 
H      25.78504153      11.14682219      12.16910197 
H      26.57748208      12.53260468      12.99811042 
H      24.45732791       8.27203354      16.59126713 
H      22.78599109       8.93531909      16.67052081 
H      23.63831053       8.44085117      18.17849733 
H       9.10083405      23.75808171      14.36102095 
H       9.63953351      23.70017269      16.07529970 
H       9.10435422      22.20912508      15.25329448 
H       9.51579770      19.05972840      13.11976715 
H      10.51209449      20.44574025      13.69107079 
H       9.51492718      19.51847791      14.85080237 
H       8.33407701      16.09046081      16.52147834 
H       9.70036975      16.89088941      15.67179636 
H       8.62743572      17.83964127      16.74038219 
H       7.94297330      19.51026223      18.90490856 
H       7.12353974      18.82431170      20.34016815 
H       8.46078381      17.92011955      19.54114870 
H       8.20375992      22.05157671      18.09144165 
H       7.51856241      23.40992370      19.03035910 
H       8.38797560      22.08005390      19.86935094 
H      12.55241297      28.55705825      11.85870433 
H      11.13013989      27.95712486      12.76171180 
H      11.95185312      26.89585023      11.58242464 
H       7.95672539      26.61603805      22.84272100 
H       8.69471764      27.65616018      21.58999105 
H       8.90352500      28.05764702      23.31927903 
H       7.25666254      16.57248730      24.69772366 
H       7.53399999      18.18455375      25.42459665 
H       7.91627420      16.70591808      26.35773846 
H       9.96731099      11.56133596      15.96871585 
H       9.82917189      11.51175298      17.75192072 
H      10.73233567      10.22871234      16.88846985 
H      13.50453899      17.45704459       8.16974899 
H      12.18445670      18.45220508       8.85330289 
H      12.48126456      16.80570896       9.48254141 
H      11.34129902      27.12537142      16.23799081 
H      10.62953750      27.30383448      17.87887729 
H      10.77545804      25.67906942      17.14877689 
H       9.27482292      23.47981019      23.66994269 
H       8.93557497      21.89244888      24.45228627 
H       9.12173804      21.98882725      22.67313652 
H       9.74079562      13.89675151      20.99176692 
H       9.68827725      15.64182917      20.60255432 
H       9.49244693      15.10185631      22.30250734 
H      12.44612960      14.69339924      12.77907191 
H      11.75277740      15.49418447      14.22256629 
H      12.11195865      13.73479350      14.26064282 
H      13.25523737      21.37748681      10.67108932 
H      13.07970873      23.14541549      10.94531579 
H      12.43764034      21.99071762      12.15151174 
H      15.48451919      25.29528302       9.07963762 
H      15.54337642      23.83524015      10.12974634 
H      16.94190060      24.25124877       9.10196907 
H      13.65319545      30.65832699      19.05887448 
H      11.96909359      30.57929559      19.66886570 
H      12.67965359      29.18789434      18.77778234 
H      10.84742010      22.59010310      28.18419848 
H       9.41369989      21.55027728      27.91502900 
H      10.35251712      22.18373296      26.51957770 
H      11.55644972      10.42637702      22.09462321 
H      11.73569567      12.21134631      22.29448772 
H      12.61866628      11.09370476      23.38141172 
H      15.02931673      13.07466037      10.46261791 
H      14.89154835      13.44414885      12.21689624 
H      16.15273722      12.31877456      11.63496063 
H      17.10128701      20.06688277       7.52469893 
H      16.14426766      21.37227904       8.29214097 
H      16.13770600      19.73319759       9.00285685 
H      14.86830206      30.95302230      14.89711332 
H      13.72402684      30.36078974      16.14188632 
H      14.34184418      29.23544594      14.89802418 
H      10.28170335      25.27165038      26.83066572 
H      10.83911754      26.12801188      25.36013175 
H      10.96148160      26.92226081      26.96868163 
H      10.72562542      13.35952355      25.37522514 
H      10.88888942      15.05331835      25.91314655 
H      10.95465877      13.72273000      27.11558491 
H      14.48651399      10.70805063      14.15212547 
H      14.08481047      10.85049437      15.89012356 
H      14.87547979       9.35997011      15.26795545 
H      21.51635076      17.09334539       8.25483056 
H      22.68066553      16.40701209       9.42994841 
H      22.39327937      18.17417171       9.38838891 
H      19.99328483      30.71839451      13.47912611 
H      21.51768074      29.78009064      13.47091995 
H      20.72752839      30.17926627      15.02593681 
H      16.94547956      29.90042273      26.31061883 
H      16.49942838      28.45804748      27.27683638 
H      15.26240923      29.70601445      26.89690472 
H      14.47593900      15.23663656      30.50282884 
H      15.80718514      16.32281490      30.99537141 
H      16.08002041      15.10834040      29.71339723 
H      18.09388149       7.80672187      19.02078317 
H      19.10322959       8.26129441      20.42808991 
H      19.51420082       8.88376008      18.80146203 
H      19.79544112       8.28624837      14.47854301 
H      18.47005850       9.36541371      15.02834935 
H      19.30748920       8.30659453      16.20115933 
H      21.52315354      13.36961910       9.91981003 
H      21.07150680      11.66722432      10.23320945 
H      22.40098403      12.42376358      11.16697635 
H      21.93312853      21.86879773       7.25533983 
H      20.51561876      21.25778208       8.17205313 
H      21.84239825      20.14532396       7.72332455 
H      21.53985998      27.16664478       9.33071676 
H      22.75650434      26.77065408      10.58951243 
H      21.43916260      27.94409222      10.94203875 
H      19.38572595      32.15255217      15.98854907 
H      18.84388249      33.09195181      17.41039611 
H      17.89682888      31.67115052      16.85703469 
H      17.10059278      32.82626243      22.48134799 
H      18.52907209      31.92927744      23.09457162 
H      16.92363653      31.71690688      23.87310233 
H      14.94637080      27.54434328      29.25905350 
H      14.44432292      26.45510112      30.58819442 
H      13.85009975      26.17169922      28.91539069 
H      14.94330319      19.28922411      31.35705798 
H      14.24174821      20.78033363      32.06350574 
H      15.99027770      20.72170127      31.66133882 
H      15.08437559      11.14581446      28.70335388 
H      14.30456879      12.54089017      27.88185187 
H      15.12078091      12.76557392      29.46304533 
H      17.25090865       8.29386354      22.85650572 
H      16.45426809       8.21501784      24.45797832 
H      18.13349996       8.84418257      24.32375411 
