646
Properties=species:S:1:pos:R:3 i=90 optimized=T E=-10337.7351310053 pbc="F F F" jobid=246_80-Ag-80_1-000005-PBE
Ag      21.91049605      20.17237608      20.90965880 
Ag      24.74163874      20.19397395      21.80197626 
Ag      20.49705237      22.68107437      20.46272307 
Ag      19.78610440      20.95972021      22.74360817 
Ag      20.05839290      18.13904011      21.87816371 
Au      21.19607697      23.50464243      23.17550852 
Ag      20.45862608      21.75456189      25.42891516 
Ag      20.76404323      18.96558196      24.61803075 
Au      20.99694829      16.15300891      23.75040973 
Au      21.92619790      16.09323969      20.94272495 
Ag      22.78919625      16.09707164      18.11643105 
Ag      23.11323738      18.87645829      17.23197508 
Ag      23.33571031      21.69188588      16.34692876 
Au      22.64734191      23.44930869      18.60803642 
Ag      21.86020839      25.19423351      20.87617048 
Ag      23.36332797      22.70340136      21.36044080 
Ag      22.64442530      20.98761978      23.62758625 
Ag      22.91288718      18.17666204      22.79536647 
Ag      23.80604931      18.13571432      19.98344203 
Ag      24.06160366      20.93375650      19.09079190 
Ag      20.95016472      13.99460778      19.04689048 
Ag      21.85522488      14.00882700      16.23430500 
Ag      22.17208507      16.81722373      15.33217515 
Ag      22.41774740      19.66731866      14.41819395 
Ag      22.68785876      22.46248105      13.55928105 
Au      21.99041737      24.26425291      15.82177353 
Au      21.22167057      26.03700248      18.12807435 
Ag      20.48250600      27.77506791      20.47995007 
Ag      25.43374249      22.45541247      14.50057939 
Ag      24.80303362      24.24981017      16.70153515 
Ag      24.00141189      25.94511237      18.99616608 
Au      23.23694108      27.67847741      21.30422189 
Ag      22.63860842      26.08150747      23.63387912 
Ag      21.87469330      24.31018783      25.86552507 
Ag      21.09526248      22.56485670      28.12771127 
Au      21.44141974      19.76688106      27.40658521 
Ag      21.69512768      16.96194932      26.47772238 
Ag      21.94044854      14.12837635      25.59809696 
Ag      22.90193208      14.04442709      22.85353702 
Ag      23.73902333      14.06254614      20.01000985 
Ag      24.58923985      14.07158128      17.16805848 
Ag      24.99456411      16.79893511      16.24070560 
Ag      25.18934631      19.61944225      15.39279719 
Au      23.65407450      18.98438581      25.56007566 
Ag      23.81334488      16.18195370      24.68222123 
Ag      24.81261513      16.08477816      21.87831780 
Ag      25.58875691      16.07391896      19.03468537 
Ag      25.97267335      18.85338957      18.11656992 
Ag      26.13164807      21.66192649      17.23218538 
Ag      25.52122543      23.44755627      19.50848937 
Ag      24.74084102      25.21048793      21.73387820 
Au      24.11503767      23.55187242      24.08912983 
Ag      23.27981425      21.81284444      26.32135972 
Ag      26.22316177      22.72475801      22.25552981 
Ag      25.50355424      21.00302226      24.55849569 
Ag      25.76342984      18.17331205      23.72519533 
Au      26.63617003      18.13416158      20.88470437 
Ag      26.91718084      20.96187568      19.97420170 
Ag      27.58818488      20.19419879      22.72793451 
Ag      27.53647048      15.29088237      21.22826275 
Ag      28.41399510      17.35374575      18.66827365 
Au      28.64512707      19.97192350      17.71885760 
Ag      28.34911081      23.23646456      18.85557182 
Ag      27.66499082      25.00493325      20.94401154 
Ag      26.68450327      24.89721535      24.16521375 
Ag      25.92277808      23.35511747      26.39564771 
Ag      25.69861296      20.05065037      27.33807161 
Ag      25.87116228      17.33804369      26.62053380 
Ag      26.72966167      15.43210433      23.93760746 
Ag      28.54831949      17.50911824      22.93826145 
Au      29.25187040      19.40273752      20.58964354 
Ag      28.98026765      22.37422488      21.54792312 
Ag      28.05111164      22.31847909      24.52892134 
Ag      27.77361850      19.32761030      25.40618943 
Ag      25.59448515      13.35316242      22.19627832 
Ag      26.37052048      13.29064690      19.29631722 
Ag      27.31405699      15.13832145      16.98204260 
Ag      27.60094982      17.95219197      15.91838341 
Ag      27.73199205      20.82181472      14.99567592 
Ag      27.59939392      23.76119411      15.98067507 
Au      26.80896417      25.61673346      18.19839844 
Au      25.91375446      27.48265692      20.38445230 
Ag      25.32062312      27.45854475      23.39662241 
Ag      24.43258052      25.80988257      25.82002630 
Ag      23.55674145      24.07046343      28.11781531 
Ag      23.47934997      21.10737079      29.08918733 
Ag      23.63771407      18.17047624      28.31632738 
Ag      23.80196659      15.31721423      27.45866972 
Ag      24.77478108      13.53384891      25.07674783 
Ag      24.16488560      11.71543939      15.32371110 
Ag      24.00219816      14.80010511      14.38118976 
Ag      24.23754416      17.58577202      13.52543256 
Ag      24.55014156      20.37468799      12.64375888 
Ag      25.40555774      23.28892915      11.59008425 
Au      24.10106341      25.01026830      13.99570411 
Ag      23.33245687      26.76104341      16.22435770 
Ag      22.59961930      28.49383452      18.53344204 
Ag      22.41243385      30.56533098      20.99692669 
Ag      21.23239491      28.58858465      23.20087642 
Ag      20.43454294      26.84849546      25.46485921 
Ag      19.71258278      25.09360000      27.73091263 
Ag      19.27827391      23.42481050      30.43182212 
Ag      19.33183644      20.48021653      29.22931030 
Ag      19.56572527      17.70148895      28.33776628 
Ag      19.86768680      14.91183204      27.50610533 
Ag      20.51363781      11.83648761      26.97467483 
Ag      21.06657887      11.97321162      23.77081863 
Ag      21.89578925      12.01159792      20.96137681 
Ag      22.77508936      11.98855319      18.16857228 
Ag      29.49077147      14.35924755      23.33915111 
Ag      31.19229829      18.44757727      18.15021570 
Ag      30.59199031      24.76226642      20.28685619 
Au      28.55010308      24.81131107      26.72926966 
Au      27.93452482      18.36798943      28.64785610 
Ag      28.94724369      27.41499870      19.08960994 
Au      30.27011429      18.51353376      14.80584335 
Ag      28.05428810      11.85334898      21.66027701 
Ag      25.41123524      16.47982214      29.91079254 
Ag      25.87018935      26.19924449      28.34838413 
Ag      26.40200186      26.61331183      15.37752857 
Ag      23.24237267      28.54629934      25.53728387 
Ag      21.64220913      18.90095202      30.47182819 
Ag      23.93742726      11.07187016      23.33531169 
Ag      26.88365926      15.80932846      13.89784965 
S      29.54939094      22.69211892      26.52325581 
S      29.47327217      18.19777726      26.87842029 
S      30.75915203      16.34338548      22.88426374 
S      31.62663103      19.85543006      20.06989955 
S      30.95245879      23.66364361      22.40016772 
S      27.78171532      27.01016002      27.11379253 
S      30.77999975      26.06474281      18.27179026 
S      31.32304578      16.95926986      16.24451024 
S      28.73384328      12.15632573      23.95114000 
S      26.61115923      18.46524013      30.60056123 
S      27.94180079      26.62901412      22.89659569 
S      29.65014824      22.16511091      16.98876340 
S      29.01300237      14.98792713      19.18558133 
S      26.74443171      14.96244400      26.40721057 
S      25.93033354      22.16950437      28.65217909 
S      24.03435981      25.81568359      29.83001687 
S      27.44986510      29.22957674      19.61825734 
S      29.31115204      19.97449789      13.24071446 
S      27.46615137      11.06096832      19.48418110 
S      24.20037782      14.42201584      29.75211427 
S      22.58841688      20.93470161      31.40047014 
S      24.94686789      29.74543930      24.29447890 
S      28.13344327      25.37544684      14.17721072 
S      27.85760143      13.84289966      14.93725277 
S      24.42333915      11.16099480      25.71726947 
S      20.43473673      16.79232908      30.48855248 
S      21.49500744      28.25921975      27.19571282 
S      24.98740190      28.55217369      15.82991365 
S      26.21736874      17.24825468      12.05671563 
S      23.40215332      10.04503597      21.20363962 
S      20.27632741      10.14600927      25.28596284 
S      20.89428057      13.15830315      28.93701124 
S      18.24317759      21.40895095      31.26282324 
S      20.41848977      25.51360692      30.07975780 
S      21.00668336      31.05335185      22.89962904 
S      23.92701857      30.49668844      19.13042479 
S      24.59171829      25.55644636      11.64151386 
S      26.50151140      21.17966926      11.31528563 
S      24.06880856      12.65220915      13.11161476 
S      24.58138645      10.49113270      17.34370937 
C      31.27047823      23.03681387      25.98784289 
C      30.83867133      19.34205227      27.31665138 
C      31.74166071      16.69101002      24.39572689 
C      32.72466124      18.93265266      21.21227900 
C      32.50797792      22.70342410      22.23014937 
C      28.90134183      27.67666124      28.41705286 
C      32.27994359      27.11402332      18.49443683 
C      33.07558430      16.94201997      15.68062039 
C      30.24728643      11.11452620      24.11600841 
C      27.72058755      17.87941130      31.95059552 
C      29.57117841      26.94630222      23.68999050 
C      31.46959318      22.35395660      17.18901805 
C      30.82823327      14.77095094      19.40633099 
C      28.40661766      14.50610728      27.05386300 
C      27.41730403      22.18235785      29.73748649 
C      24.67420647      24.81546769      31.23248506 
C      28.03583029      29.99165810      21.18013598 
C      30.47804453      21.39094445      13.14109520 
C      28.95525421      11.25566341      18.42620727 
C      25.43410336      13.09334846      29.46023763 
C      23.94012408      20.44283699      32.54287816 
C      26.26721987      30.16603829      25.49994191 
C      29.72959167      26.20355712      14.55069786 
C      29.66129250      13.88697539      14.59328623 
C      26.04886353      10.34746313      25.98044983 
C      19.10673068      17.10527621      31.72419337 
C      20.60200821      29.86797671      27.13750258 
C      24.58188597      29.18180049      14.14885170 
C      25.66424768      16.04420443      10.77878161 
C      22.30336950       8.64971420      21.68833357 
C      21.52463182       8.86557937      25.71095981 
C      19.67072308      12.64434419      30.20448607 
C      19.12226852      20.99583359      32.82420582 
C      19.36281780      26.83844817      30.78627163 
C      22.03021160      32.06759404      24.04113328 
C      23.44201423      31.84109147      17.97956997 
C      26.06051307      26.63562059      11.42080424 
C      26.27566612      20.66380891       9.56845601 
C      25.69208140      12.25494891      12.34405677 
C      23.89350702       8.80390085      17.12518463 
Ag      19.09350118      20.15544020      20.03393217 
Ag      16.24290512      20.14702662      19.13327758 
Ag      21.21589287      20.94376026      18.18595962 
Ag      20.96624433      18.12698152      19.06124939 
Ag      19.81503999      23.47435910      17.73685859 
Ag      20.56410535      21.72420141      15.45586622 
Au      20.31086769      18.92121770      16.30872671 
Ag      20.02234246      16.11567720      17.21698526 
Ag      19.10137931      16.07985810      19.98721249 
Ag      18.23801684      16.11000073      22.84357032 
Ag      17.92741425      18.89437865      23.71787027 
Ag      17.69208480      21.70751833      24.56326307 
Ag      18.36017746      23.47382338      22.31562524 
Ag      19.09683189      25.18523178      20.05804649 
Ag      17.64391214      22.66041940      19.57565361 
Au      18.37657048      20.95228142      17.29451313 
Ag      18.11053448      18.14354677      18.14663188 
Au      17.21263630      18.10223084      20.95789609 
Au      16.93801357      20.92808659      21.83267419 
Ag      20.09698172      14.00826222      21.92207605 
Ag      19.19434323      14.05226782      24.76338774 
Ag      18.86526858      16.84093891      25.63917060 
Ag      18.61615244      19.68548299      26.50587746 
Au      18.34918159      22.50740914      27.32322799 
Ag      19.02710825      24.31238118      25.08174232 
Au      19.79062027      26.07819473      22.80134909 
Au      15.61081254      22.43565671      26.41103409 
Au      16.19677805      24.30053707      24.18719210 
Ag      16.95072705      25.97115445      21.94275074 
Au      17.68772808      27.68327012      19.67730086 
Au      18.35495726      26.01085187      17.30827936 
Ag      19.14058970      24.25488848      15.04694952 
Ag      19.90762177      22.49492760      12.74732323 
Ag      19.59349091      19.70881281      13.51352971 
Ag      19.35203953      16.92776196      14.47029862 
Ag      19.11765743      14.11458656      15.38237444 
Ag      18.14381742      14.01336300      18.12035492 
Ag      17.29342169      14.05378016      20.94790282 
Ag      16.48637903      14.07039794      23.84216964 
Ag      16.07340767      16.83883509      24.74732278 
Ag      15.83247723      19.59379629      25.56320304 
Ag      17.39206840      18.93321011      15.36603465 
Ag      17.21643372      16.14840543      16.30056497 
Ag      16.19553596      16.04033679      19.07673153 
Au      15.43148255      16.06669004      21.92581099 
Ag      14.96913643      18.84897810      22.80877465 
Au      14.86056192      21.63496272      23.70064155 
Ag      15.44575735      23.48552042      21.44548334 
Ag      16.28061800      25.16035976      19.21995814 
Ag      16.90936147      23.53024936      16.82730301 
Ag      17.75721949      21.76595476      14.58650233 
Ag      14.79878116      22.70442579      18.66581756 
Au      15.56050654      20.95811236      16.39183036 
Ag      15.24414324      18.11889280      17.22239140 
Au      14.31442439      18.08373286      20.02750779 
Au      14.03882382      20.94499923      20.95304880 
Ag      13.39253240      20.16216732      18.21625543 
Ag      13.43275606      15.23122951      19.70744818 
Au      12.52712309      17.29856333      22.30537424 
Ag      12.29079694      19.93944044      23.21535480 
Au      12.60238726      23.25215657      22.15232906 
Ag      13.33157551      24.95095179      20.05353474 
Ag      14.33248876      24.87323242      16.76856230 
Ag      15.11896406      23.32705439      14.53370440 
Ag      15.36711408      20.01909330      13.59030397 
Au      15.17431109      17.33364097      14.33209127 
Ag      14.29398203      15.35245711      17.03160077 
Ag      12.46562475      17.46788118      17.92661043 
Ag      11.69422393      19.33481098      20.36247912 
Au      12.03462365      22.34759846      19.41839661 
Au      13.03370019      22.28257243      16.35030063 
Ag      13.26399106      19.34975491      15.49405850 
Ag      15.46680665      13.28467147      18.77044743 
Ag      14.60996297      13.33958171      21.70577126 
Au      13.84902760      15.13861641      24.01999403 
Ag      13.40288328      17.92180248      25.01578751 
Ag      13.29233209      20.78770872      25.93843304 
Ag      13.39713774      23.73750918      24.98896185 
Ag      14.10253394      25.66628145      22.77503266 
Ag      14.97468672      27.42517417      20.53427997 
Ag      15.73120311      27.39082921      17.50932455 
Ag      16.59378408      25.79508534      15.09497663 
Ag      17.42766094      24.02637616      12.81948457 
Ag      17.54290791      21.03260599      11.83325158 
Ag      17.39549857      18.13213988      12.62257719 
Ag      17.24744812      15.29793342      13.51643806 
Ag      16.30185443      13.52313331      15.87211447 
Ag      16.87560650      11.64692778      25.61317403 
Ag      17.03114852      14.81234913      26.61647473 
Ag      16.81906002      17.61296610      27.46115074 
Ag      16.50001052      20.41658062      28.31819054 
Au      15.40818250      23.25788584      29.33041760 
Ag      16.85488413      25.04132156      26.89855743 
Ag      17.66021965      26.79024497      24.68166076 
Ag      18.35830330      28.50329500      22.41976581 
Au      18.41490965      30.62000318      20.03681211 
Au      19.73489811      28.49137730      17.70697038 
Ag      20.52921775      26.79265349      15.46402438 
Ag      21.26183412      25.05166888      13.20248619 
Au      21.56094520      23.40925897      10.39522220 
Ag      21.73238144      20.40704586      11.71201183 
Ag      21.50850725      17.64639503      12.61515557 
Ag      21.18744601      14.86729267      13.47789313 
Ag      20.55027793      11.81888088      14.03193825 
Ag      19.95399420      11.95203301      17.22353023 
Ag      19.15869406      12.01672461      20.03996846 
Au      18.27704028      12.06423214      22.83445250 
Ag      11.44956254      14.43820304      17.57598354 
Ag       9.75808484      18.40038026      22.73575838 
Ag      10.41876162      24.82660621      20.85077248 
Ag      12.48098133      24.78594301      14.37032677 
Ag      13.14036470      18.34754004      12.38109690 
Au      11.94660551      27.58549126      22.22533454 
Au      10.69766177      18.48387246      26.07260716 
Ag      12.92190770      11.95538647      19.32920567 
Ag      15.55928587      16.49108960      11.00698189 
Ag      15.01103868      26.19051506      12.66125928 
Ag      14.59769706      26.67645506      25.62459925 
Au      17.75791859      28.61442799      15.12469328 
Ag      19.38105535      18.85898077      10.48148997 
Au      17.06877101      10.85837245      17.57876847 
Ag      14.15345327      15.80021508      27.10831959 
S      11.39704098      22.64370720      14.52693651 
S      11.50867997      18.19756748      14.14253301 
S      10.19792597      16.44217272      18.00618353 
S       9.30365123      19.85918759      20.87335597 
S      10.11078587      23.73548163      18.71840812 
S      13.10765430      27.05055824      13.87179327 
S      10.18696986      26.14113338      22.86793490 
S       9.54643192      16.96331477      24.67359570 
S      12.22401234      12.22300394      17.03272903 
S      14.32709696      18.43220424      10.28299874 
S      13.21880465      26.64135498      18.18182900 
S      11.29769095      22.13364596      23.95908692 
S      11.80559017      15.01508915      21.64726704 
S      14.28509963      14.97555011      14.54873085 
S      15.05381418      22.11818728      12.27884271 
S      16.85206274      25.80703710      11.17565944 
S      13.60305375      29.16452490      21.71471107 
S      11.72111446      19.89145779      27.64580363 
S      13.49951106      11.13515314      21.50831813 
S      16.81842472      14.46469017      11.20862815 
S      18.40800051      20.86701882       9.51040853 
S      16.12898267      29.63120716      16.49070008 
S      12.90778991      25.37345375      26.77228231 
S      13.12525870      13.89683266      25.97493416 
S      16.55043289      11.12060527      15.28348286 
S      20.60966713      16.76215379      10.47111226 
S      19.45949962      28.04096156      13.58707439 
S      16.02867741      28.59244064      25.18839510 
S      14.86536920      17.20499966      28.94663998 
S      17.63223941      10.05349363      19.72303124 
S      20.81719408      10.13989286      15.73004025 
S      20.09449044      13.12520583      12.07273086 
S      22.67778680      21.47419049       9.64256785 
S      20.46847594      25.43643019      10.86802549 
S      19.87757057      30.90271823      18.20826808 
S      16.95670790      30.51136399      21.87250318 
S      16.33393944      25.42545941      29.31994251 
S      14.43630644      21.13052418      29.58535778 
S      16.90927751      12.61994857      27.80980190 
S      16.54778567      10.45413022      23.53867016 
C       9.71427497      22.93523174      15.19294376 
C      10.12538073      19.32027929      13.70308273 
C       9.19480285      16.79889626      16.51341421 
C       8.15818436      18.95483213      19.75972546 
C       8.55455734      22.77389268      18.85223009 
C      11.94826972      27.63666929      12.56281875 
C       8.67852788      27.17965170      22.67923735 
C       7.80189992      17.08805340      25.24865011 
C      10.71924642      11.16630546      16.88548843 
C      13.17981199      17.78770908       8.99129778 
C      11.58028021      27.14936468      17.50982057 
C       9.48715019      22.36593298      23.74345876 
C      10.00257570      14.94338179      21.31019747 
C      12.60780000      14.62458583      13.87995231 
C      13.50033590      22.07976527      11.29005699 
C      16.20225265      24.82020133       9.76821523 
C      12.93824148      30.09890403      20.27861513 
C      10.57293588      21.31506774      27.82685367 
C      11.99852720      11.35425801      22.54594169 
C      15.59741655      13.11927314      11.48024606 
C      17.06659478      20.33391844       8.37421738 
C      14.74461514      30.10846187      15.38638067 
C      11.30215065      26.22151798      26.50303389 
C      11.31171034      14.02290025      26.21057169 
C      14.90648807      10.34060167      15.04416954 
C      21.93292096      17.06269640       9.22711559 
C      20.43384395      29.59704685      13.46782044 
C      16.45409019      29.18727054      26.87715108 
C      15.43267252      15.99345383      30.21036111 
C      18.73293488       8.63054378      19.33891594 
C      19.58231908       8.84219063      15.31341710 
C      21.27486094      12.59965791      10.76926504 
C      21.84454395      21.01744414       8.07026510 
C      21.48978329      26.74027128      10.07591418 
C      18.98149999      31.92780752      16.97921224 
C      17.40773966      31.89990887      22.98187140 
C      14.93555175      26.57388484      29.63175656 
C      14.61678899      20.70203599      31.35938008 
C      15.27824473      12.22637598      28.56280682 
C      17.30624415       8.79362876      23.69604115 
H      31.75892431      22.06734836      25.82889476 
H      31.79278190      23.58122582      26.78195771 
H      31.28490237      23.60904719      25.05378501 
H      31.52676855      19.36742366      26.46255962 
H      31.36444364      18.95413642      28.19603684 
H      30.46045504      20.35070496      27.51373024 
H      32.22918758      17.66463056      24.26186867 
H      32.50800193      15.91615447      24.50954427 
H      31.10719062      16.72529375      25.28765416 
H      33.71686468      18.85573343      20.75277429 
H      32.32584999      17.93513533      21.42597760 
H      32.79878579      19.50271372      22.14649239 
H      33.35245056      23.39816391      22.16024976 
H      32.47720061      22.05664696      21.34661279 
H      32.62284236      22.08452548      23.12858134 
H      29.88468508      27.86267832      27.97029146 
H      29.00202194      26.98192354      29.25550755 
H      28.47436699      28.62263864      28.77085161 
H      32.25790017      27.90990280      17.74084902 
H      33.16749472      26.48998769      18.33811460 
H      32.31956560      27.55965118      19.49237147 
H      33.11858009      16.47711843      14.68894626 
H      33.64933105      16.33817691      16.39364467 
H      33.49461341      17.95095269      15.63393271 
H      29.94347364      10.06126915      24.11745506 
H      30.73027745      11.35488399      25.07027146 
H      30.95129230      11.28929029      23.29752844 
H      28.46415213      18.65804412      32.15541027 
H      28.22551684      16.94789468      31.68016128 
H      27.10261167      17.71833695      32.84200024 
H      30.10377115      27.69004322      23.08530827 
H      30.15643751      26.02157897      23.73636673 
H      29.39555792      27.33414180      24.69960118 
H      31.96855947      21.79052032      16.39205703 
H      31.78023103      21.97049707      18.16730968 
H      31.70400019      23.42228755      17.11128152 
H      31.31778606      14.98334588      18.44903979 
H      31.01757876      13.73339068      19.70639679 
H      31.19660870      15.45018771      20.18274483 
H      28.73842188      13.59907669      26.53493853 
H      28.32247124      14.32012107      28.13099586 
H      29.11091318      15.32637801      26.87764380 
H      27.44515588      23.13411318      30.28047960 
H      28.31683657      22.08146426      29.12047101 
H      27.34045007      21.34269322      30.43716481 
H      23.80315575      24.47427529      31.80587099 
H      25.31143063      25.44167496      31.86645885 
H      25.23187248      23.94006613      30.88295937 
H      28.92911014      30.58837057      20.96268066 
H      28.26130392      29.22699635      21.93183497 
H      27.23486731      30.64096342      21.55469856 
H      31.41103437      21.06316195      12.67016658 
H      30.67847969      21.81856664      14.12930629 
H      29.99179224      22.14867836      12.51376697 
H      28.64460793      11.05912128      17.39248502 
H      29.71383550      10.52539443      18.72824816 
H      29.36059609      12.27153488      18.48683461 
H      24.87338875      12.18590178      29.20321370 
H      26.01155361      12.92366991      30.37556051 
H      26.10308522      13.34333890      28.62941839 
H      24.45241597      21.35602604      32.86915408 
H      24.66095017      19.78221498      32.04910102 
H      23.50800102      19.93735534      33.41379724 
H      27.10434393      30.59940969      24.93941162 
H      26.61808636      29.27866907      26.03766931 
H      25.88438664      30.90557486      26.21205875 
H      29.73624253      27.19490406      14.08379103 
H      30.53234271      25.59334171      14.11949662 
H      29.89281650      26.30044048      15.62970431 
H      29.82553856      13.74313561      13.51955192 
H      30.12501787      13.06146054      15.14665944 
H      30.10943225      14.83330349      14.91528147 
H      25.94236076       9.27101453      25.80508594 
H      26.34330643      10.51923765      27.02285417 
H      26.81672590      10.76013396      25.31627303 
H      18.41106387      16.25818703      31.69256852 
H      18.56109136      18.03058584      31.50807285 
H      19.55708954      17.16620232      32.72155505 
H      19.69050466      29.76961079      27.73913711 
H      20.33226464      30.14498215      26.11239951 
H      21.24236365      30.64297814      27.57409064 
H      25.47796666      29.64535969      13.71993001 
H      23.79543542      29.93956423      14.24799646 
H      24.23033789      28.37976341      13.49093882 
H      25.17755599      16.60641298       9.97290575 
H      24.95729501      15.31355654      11.18773450 
H      26.54249311      15.52452951      10.37884785 
H      21.86099404       8.23624219      20.77404058 
H      21.50345173       8.97783432      22.36174609 
H      22.90664893       7.87770640      22.17962690 
H      21.59402168       8.16288411      24.87221712 
H      21.18076987       8.33252366      26.60448596 
H      22.50618453       9.31684287      25.89474636 
H      20.01587433      11.71048324      30.66286792 
H      18.67528591      12.50202029      29.76933107 
H      19.64022820      13.43538159      30.96365477 
H      18.81861336      19.98971906      33.13632400 
H      18.81747417      21.71960588      33.58864750 
H      20.20895892      21.02683536      32.68953463 
H      19.70786381      27.79103407      30.36659135 
H      19.49788903      26.84888089      31.87405465 
H      18.30572931      26.68147981      30.54554911 
H      22.13381964      33.06887754      23.60768146 
H      23.01890314      31.62122352      24.19475134 
H      21.50674756      32.14170569      25.00157415 
H      23.90498931      31.62518780      17.00896544 
H      23.83114526      32.78974723      18.36737547 
H      22.35407880      31.90407548      17.87002720 
H      26.35349519      26.58176588      10.36569160 
H      26.89046302      26.31670703      12.06096762 
H      25.77691812      27.66492800      11.66886696 
H      26.98232681      21.22166063       8.94343634 
H      25.25118694      20.84732920       9.22651412 
H      26.50395741      19.59238224       9.51514584 
H      25.77568533      12.82114528      11.40894039 
H      25.71439484      11.18202491      12.12246165 
H      26.52088767      12.52047287      13.00973699 
H      24.58591233       8.22155830      16.50667044 
H      22.90432438       8.83264735      16.65474739 
H      23.82357633       8.35247409      18.12227822 
H       9.11111534      23.42045364      14.41693823 
H       9.75092504      23.55978221      16.09210588 
H       9.27450712      21.96155514      15.44133859 
H       9.62185228      18.93318690      12.81020737 
H      10.48573549      20.33868400      13.52286390 
H       9.41785173      19.32899673      14.54150006 
H       8.43952176      16.01390262      16.39648930 
H       9.82288319      16.86011255      15.61774123 
H       8.69406959      17.76225283      16.67087325 
H       8.02343831      19.55992253      18.85448388 
H       7.19145798      18.83450001      20.26123216 
H       8.56358101      17.97634438      19.48021273 
H       8.47038708      22.13768101      17.96269217 
H       7.71380897      23.47656694      18.87899703 
H       8.55525656      22.14452543      19.74879289 
H      12.35922252      28.55223615      12.12169326 
H      10.98251216      27.85980013      13.03090234 
H      11.80831317      26.88617591      11.77979090 
H       7.80723211      26.53076836      22.82779095 
H       8.62669268      27.64116103      21.68925921 
H       8.69045102      27.95818256      23.45072214 
H       7.18316785      16.50063361      24.55981522 
H       7.45218100      18.12409376      25.26053931 
H       7.73204800      16.66199919      26.25610773 
H      10.23547079      11.38445042      15.92632575 
H      10.01274077      11.35091624      17.69967589 
H      11.03160000      10.11569805      16.90482390 
H      13.76391374      17.55391114       8.09360240 
H      12.45002042      18.57122553       8.75624888 
H      12.65328757      16.88996376       9.32718740 
H      11.73443258      27.56787110      16.50856963 
H      11.14588360      27.90159508      18.17815517 
H      10.92171358      26.27509034      17.45763343 
H       9.26345123      23.43357129      23.85052951 
H       8.97745567      21.79093332      24.52601943 
H       9.17383139      22.00400921      22.75809362 
H       9.76971824      13.94591281      20.91726859 
H       9.70573078      15.69968181      20.57662377 
H       9.47667202      15.10343111      22.25918718 
H      12.68044264      14.51387842      12.79152308 
H      11.92488282      15.44586998      14.12369255 
H      12.25916666      13.69037925      14.33649962 
H      13.56573480      21.24913774      10.57779247 
H      13.40552615      23.03329737      10.75726937 
H      12.64144611      21.94149333      11.95624119 
H      15.55882161      25.45346582       9.14767405 
H      15.64761291      23.94149965      10.11510106 
H      17.06665007      24.48452741       9.18184356 
H      13.73824859      30.77697326      19.95557040 
H      12.06538776      30.68119792      20.59279162 
H      12.67383068      29.43209094      19.45122072 
H      11.08726701      22.04581218      28.46382338 
H       9.65222626      20.97870710      28.31547218 
H      10.34599571      21.77542666      26.85935750 
H      11.24724554      10.61342358      22.25124265 
H      11.59168310      12.36767191      22.45031637 
H      12.29426418      11.18487895      23.58865074 
H      15.03425467      12.94760330      10.55631906 
H      14.91316971      13.35776417      12.30215145 
H      16.16413445      12.21581203      11.73803466 
H      17.50819609      19.81280567       7.51742082 
H      16.54994291      21.23580587       8.02415222 
H      16.34671203      19.67933253       8.87844798 
H      15.09421743      30.86827681      14.67897403 
H      13.96139212      30.53613181      16.02441122 
H      14.34282580      29.24405569      14.84631777 
H      10.51743005      25.59133239      26.93866748 
H      11.09318832      26.37103638      25.43864684 
H      11.31955891      27.18843484      27.01824403 
H      10.82943854      13.34312929      25.49824836 
H      10.94756228      15.04103087      26.04062241 
H      11.08115834      13.70801108      27.23511800 
H      14.62892741      10.49907647      13.99472695 
H      14.14963276      10.79466897      15.69381604 
H      14.98427785       9.26629244      15.24359689 
H      21.47916012      17.10790836       8.23044036 
H      22.63328923      16.21991980       9.26889147 
H      22.47530132      17.99317146       9.42770782 
H      19.83996092      30.35013042      12.93778565 
H      21.33980275      29.37179150      12.89180811 
H      20.71647228      29.97104270      14.45703554 
H      17.23638953      29.94959437      26.77990730 
H      16.81988791      28.37400280      27.51341027 
H      15.56323645      29.63782303      27.32969398 
H      14.56035467      15.46308233      30.60920567 
H      15.91673022      16.55406223      31.01892558 
H      16.14465802      15.27283153      29.79252984 
H      18.14241391       7.83122699      18.87738053 
H      19.14598389       8.27677306      20.29169484 
H      19.55282431       8.92417321      18.67403671 
H      19.93919853       8.29928761      14.43092664 
H      18.59842986       9.27949024      15.11362468 
H      19.50981105       8.15086172      16.16120145 
H      21.27248084      13.38049851       9.99903093 
H      20.92125653      11.65676891      10.33670876 
H      22.28595759      12.47131274      11.17134798 
H      22.10006169      21.76531970       7.31142758 
H      20.75810098      20.96468779       8.20359690 
H      22.23118983      20.03836117       7.76318714 
H      21.38212196      26.66229678       8.98826673 
H      22.54411382      26.65211866      10.36008832 
H      21.08474731      27.70177494      10.41495301 
H      19.56618672      31.92574675      16.05167831 
H      18.92294914      32.94818895      17.37543918 
H      17.97876848      31.53178645      16.78810779 
H      17.05058703      32.83827401      22.54310315 
H      18.49119847      31.94286473      23.14034649 
H      16.89274773      31.71651585      23.93305191 
H      15.30629353      27.59673377      29.49515179 
H      14.60511427      26.44051533      30.66790725 
H      14.10755823      26.38134993      28.94061360 
H      14.35289616      19.64108441      31.45128646 
H      13.91921332      21.30796584      31.94825563 
H      15.64461744      20.86514974      31.70256608 
H      15.25999843      11.15756104      28.80420985 
H      14.45509037      12.47209111      27.88393466 
H      15.17758808      12.80883767      29.48620656 
H      17.41414663       8.38463335      22.68406149 
H      16.62298956       8.16121589      24.27529492 
H      18.28155335       8.84611217      24.19302213 
