646
Properties=species:S:1:pos:R:3 i=105 optimized=T E=-10152.6506445047 pbc="F F F" jobid=246_80-Ag-60_2-000010-PBE
Ag      21.94197284      20.19453249      20.91665085 
Au      24.75203873      20.22390524      21.86616477 
Ag      20.51464521      22.67999352      20.45213643 
Au      19.81610280      20.95993147      22.73977414 
Ag      20.08950235      18.15749103      21.87871000 
Ag      21.18016630      23.47237964      23.17244401 
Ag      20.46353231      21.74059130      25.47981388 
Ag      20.78591431      18.94996072      24.63138507 
Ag      21.03290942      16.17221346      23.72928011 
Ag      21.98598846      16.12033635      20.95971962 
Au      22.87653678      16.07943442      18.11237480 
Ag      23.16743689      18.91358361      17.23989503 
Ag      23.37342955      21.72143690      16.38124320 
Au      22.65797767      23.46788836      18.59845878 
Au      21.91324192      25.17266280      20.88101483 
Ag      23.39697731      22.72112674      21.35581419 
Ag      22.66473063      20.99057183      23.66535685 
Ag      22.95570909      18.17481382      22.82028525 
Au      23.85200117      18.16061888      20.00538113 
Ag      24.13941134      20.97314068      19.10612937 
Au      21.04246399      13.97505988      19.02106182 
Ag      21.96329083      14.01196595      16.21517603 
Ag      22.22653501      16.86430490      15.32534889 
Ag      22.43951840      19.71270205      14.44959044 
Ag      22.75031190      22.53854603      13.57708169 
Ag      22.04038026      24.29758112      15.87383175 
Ag      21.20590646      26.03992795      18.13700034 
Ag      20.48875466      27.78673031      20.43855757 
Au      25.44394555      22.47510838      14.55106523 
Au      24.86053717      24.30299985      16.73047672 
Ag      24.05086963      25.99692023      18.99505158 
Au      23.25208174      27.72409753      21.24680900 
Au      22.56421788      26.02713972      23.63390590 
Au      21.85109625      24.26273238      25.84889997 
Ag      21.04689281      22.54735564      28.18973747 
Au      21.40183427      19.73071962      27.40912463 
Ag      21.67989965      16.97497086      26.51802821 
Au      21.92654973      14.18329149      25.56107541 
Ag      22.92053767      14.05845928      22.82085303 
Ag      23.81305677      14.04874041      20.03443591 
Ag      24.70597120      14.02929882      17.13070846 
Ag      25.05119886      16.80949699      16.25482791 
Ag      25.24998661      19.63665188      15.40998530 
Ag      23.67600150      18.96702044      25.56904127 
Ag      23.86554127      16.19390096      24.64447922 
Ag      24.87540761      16.11271840      21.89547669 
Au      25.65555619      16.07677551      19.04503230 
Au      26.03990551      18.91131313      18.15010766 
Ag      26.24441850      21.68142922      17.23178386 
Ag      25.58747016      23.51427692      19.51224928 
Ag      24.74623360      25.23537627      21.75288809 
Ag      24.11346100      23.53558897      24.11433477 
Ag      23.30908691      21.76155674      26.34677087 
Ag      26.22545394      22.77507455      22.27791502 
Ag      25.55330353      21.04910688      24.59252252 
Ag      25.84238961      18.18849220      23.74788343 
Au      26.73670152      18.15872264      20.90599621 
Au      26.98204344      21.03168788      19.95555671 
Ag      27.63930251      20.22940245      22.73240303 
Ag      27.62679999      15.33750965      21.28888555 
Ag      28.55507628      17.38454261      18.69402426 
Ag      28.78386041      20.04357406      17.64678918 
Ag      28.46381314      23.34958455      18.84268771 
Au      27.71057418      25.10426944      20.93186656 
Ag      26.64786989      24.96789503      24.16038056 
Ag      25.99478120      23.36744505      26.41845822 
Au      25.77377661      20.08017041      27.37498955 
Au      25.99863489      17.44371736      26.61098814 
Ag      26.78818505      15.41398668      23.98607620 
Ag      28.61448512      17.55109307      22.98968301 
Au      29.30994752      19.45408202      20.55495195 
Au      28.96507733      22.41432509      21.52073943 
Ag      28.08773814      22.42232020      24.50281882 
Ag      27.86681997      19.44252059      25.42475589 
Ag      25.65263066      13.39197733      22.25340911 
Ag      26.50040413      13.37711826      19.35618909 
Ag      27.44531157      15.13928531      17.04762803 
Au      27.65585610      17.96770964      15.97333073 
Au      27.75055993      20.88977319      14.87176634 
Ag      27.73209014      23.77589139      15.95526965 
Au      26.85909316      25.70053098      18.21239856 
Ag      25.99814662      27.53687523      20.49951593 
Au      25.08920983      27.44813248      23.47153686 
Au      24.42122763      25.77817818      25.86063543 
Au      23.54559947      23.96719481      28.10719165 
Au      23.36703478      21.12936264      29.08459021 
Au      23.66979205      18.19014494      28.31536268 
Ag      23.86149812      15.34679726      27.39452520 
Au      24.66662434      13.51596032      25.06061653 
Au      24.40623860      11.57378722      15.45440705 
Au      24.08212114      14.87123079      14.34769769 
Au      24.28545980      17.61742813      13.51842204 
Au      24.51480331      20.39103468      12.66726419 
Ag      25.40669852      23.23415530      11.60703838 
Ag      24.23273922      25.07125794      14.01245677 
Ag      23.36194928      26.82141934      16.22526307 
Au      22.58028550      28.45534382      18.47499656 
Au      22.56149976      30.66173362      20.82189182 
Au      21.21177707      28.52791707      23.21709468 
Ag      20.42354350      26.86298231      25.46726406 
Au      19.71044323      25.07873239      27.64514582 
Au      19.40678955      23.53918082      30.53043846 
Ag      19.32105475      20.44133675      29.24402749 
Ag      19.49602738      17.66207969      28.38569307 
Au      19.82580385      14.92083909      27.41386303 
Ag      20.55334724      11.88396510      27.02715143 
Ag      21.11393712      11.98521765      23.77997576 
Au      21.94066556      11.98822618      20.97735050 
Ag      22.86780087      11.97234218      18.19225657 
Ag      29.61291576      14.47979223      23.38219285 
Au      31.38785745      18.34364934      17.95597543 
Au      30.75648552      25.01581154      20.09830551 
Ag      28.63173044      24.82469028      26.51517060 
Au      28.17410483      18.39055112      28.61028458 
Ag      28.81150458      27.67185972      19.13512520 
Ag      30.21986110      18.72389475      14.85139733 
Ag      28.13716880      11.92488173      21.78384655 
Au      25.43301838      16.56423017      30.07349727 
Au      26.04487197      26.26150090      28.32000127 
Ag      26.52390627      26.59277004      15.35279591 
Ag      23.18358085      28.59648179      25.61769323 
Ag      21.69264531      18.86256996      30.49716433 
Ag      24.04477263      11.01316063      23.37350032 
Ag      27.02500929      15.77487526      14.02825187 
S      29.82537494      22.75489003      26.27801181 
S      29.67185248      18.33598896      26.79882884 
S      30.85943320      16.46049746      22.86534829 
S      31.65611848      19.72577410      19.83413960 
S      31.01777205      23.68338565      22.02009235 
S      27.90756435      27.05184665      27.10084094 
S      30.67669427      26.41267001      18.20990675 
S      31.37540046      16.96035540      16.05177737 
S      28.95213614      12.25991315      24.02757892 
S      26.86781929      18.38356476      30.57997991 
S      28.05740652      26.60557043      22.89123197 
S      29.79904417      22.28512123      17.03155633 
S      29.11448617      14.99417803      19.24029760 
S      26.80083075      15.10794095      26.47294033 
S      26.28056751      22.12890515      28.61264486 
S      24.24300241      25.67689311      29.72153822 
S      27.39294951      29.48968086      19.82734993 
S      29.49386141      20.34812528      13.23719666 
S      27.40270308      11.09081381      19.66282253 
S      24.09646510      14.65552502      29.79510785 
S      22.76770297      20.86140766      31.44084763 
S      24.96420946      29.72731828      24.35445267 
S      28.24484814      25.37117838      14.12254612 
S      27.92630226      13.75749362      15.05174623 
S      24.62708698      11.14633678      25.73137669 
S      20.29325029      16.87956629      30.60936775 
S      21.38275886      28.35221775      27.22344770 
S      25.07391306      28.52596013      15.64309000 
S      26.36237781      17.25008777      12.21123228 
S      23.43287038      10.05576516      21.23904354 
S      20.32238457      10.19400284      25.33209830 
S      20.82001089      13.29601560      28.96686785 
S      18.37502316      21.56057629      31.27357330 
S      20.45037392      25.56858950      29.94896540 
S      21.13426372      30.94222444      22.67446494 
S      23.94391503      30.47655650      18.92336490 
S      24.68212915      25.52782698      11.59655946 
S      26.43992144      21.07545348      11.29558288 
S      24.18806076      12.59802254      13.34756119 
S      24.65022545      10.37808643      17.45823079 
C      31.48921609      23.13217200      25.60193942 
C      31.05367740      19.46110977      27.22981538 
C      31.90081718      16.81765940      24.33461580 
C      32.78966945      18.81821984      20.95264179 
C      32.50653327      22.65200428      21.75276321 
C      29.07623243      27.63082388      28.40107991 
C      32.12280157      27.53938638      18.37909039 
C      33.10622216      17.01750564      15.42363127 
C      30.50801978      11.27155202      24.09561277 
C      27.97526796      17.69351898      31.87625387 
C      29.78263064      26.69250765      23.51117001 
C      31.58616951      22.62692373      17.30423297 
C      30.92469576      14.69972802      19.40014947 
C      28.47945756      14.86568468      27.18030513 
C      27.97201178      22.00062663      29.31332532 
C      24.97029156      24.68823326      31.08363746 
C      28.06009218      30.07351624      21.43550763 
C      30.63504519      21.77880735      13.37339882 
C      28.86929204      11.13904409      18.55498260 
C      25.29942557      13.27351336      29.65193843 
C      24.20013161      20.28308402      32.42731799 
C      26.33318882      30.05912145      25.52618297 
C      29.83902795      26.21527235      14.46516248 
C      29.73916843      13.76071968      14.75904846 
C      26.30329220      10.43114216      25.93316347 
C      18.97761629      17.31774631      31.81764438 
C      20.46551354      29.94111233      27.09165681 
C      24.72692756      29.07137140      13.92095960 
C      25.85093881      16.08190941      10.88780409 
C      22.32295987       8.66485935      21.70154217 
C      21.57828682       8.91028986      25.72980076 
C      19.55379853      12.84530862      30.21031789 
C      19.25903978      21.11176214      32.82085091 
C      19.42358800      26.92032415      30.63569165 
C      22.04566421      31.96721009      23.89327233 
C      23.42669524      31.78103570      17.74867584 
C      26.19209693      26.51610785      11.24654249 
C      26.14248762      20.51716810       9.57779771 
C      25.76079245      12.28108462      12.45721966 
C      23.87806101       8.74128959      17.15349427 
Ag      19.10805983      20.18277030      19.99957626 
Au      16.26259500      20.15768648      19.11612512 
Ag      21.25259698      20.97198829      18.18976328 
Au      21.01017353      18.17297210      19.06878514 
Ag      19.79823531      23.48353899      17.73091962 
Ag      20.59760483      21.73958600      15.50162828 
Au      20.32493301      18.96614684      16.31856322 
Au      20.10720551      16.12807654      17.18327762 
Au      19.18444420      16.11321187      19.98879957 
Ag      18.27591073      16.12230903      22.80556175 
Au      17.96227878      18.90625853      23.71909929 
Ag      17.70933489      21.70026776      24.55669217 
Ag      18.32868978      23.44263742      22.30306253 
Au      19.10701785      25.15290162      20.04920722 
Ag      17.62135834      22.66605285      19.54583444 
Ag      18.36686651      20.97342649      17.26920011 
Ag      18.13478359      18.14677108      18.11750956 
Au      17.22107085      18.12657516      20.93601702 
Ag      16.91596765      20.90161540      21.82313599 
Ag      20.13985036      14.01635289      21.89017935 
Ag      19.21493752      14.03113325      24.68195007 
Ag      18.87336975      16.88053285      25.61742408 
Ag      18.60710561      19.68676711      26.53787030 
Ag      18.31487387      22.51304555      27.37545191 
Ag      19.00556574      24.28359691      25.04968630 
Ag      19.77200886      26.04480685      22.76589656 
Au      15.67636351      22.43030017      26.41409007 
Ag      16.23828591      24.27496913      24.20180007 
Ag      16.97604593      25.94383149      21.94858698 
Au      17.76177329      27.65588033      19.63906762 
Au      18.36427466      26.05787233      17.24034277 
Ag      19.20329962      24.32587754      15.06445452 
Au      19.97729462      22.52567079      12.82498697 
Au      19.62334629      19.72240129      13.51806084 
Ag      19.43262121      16.96230168      14.44458409 
Ag      19.25137814      14.10832156      15.33703876 
Ag      18.23029369      14.02253263      18.11590331 
Au      17.36282917      14.07206917      20.87992264 
Au      16.53174342      14.04644938      23.75692802 
Au      16.08112928      16.85866464      24.70752559 
Ag      15.84000535      19.61679352      25.53350931 
Ag      17.41464939      18.93983396      15.35903699 
Au      17.24364533      16.12313233      16.26819171 
Ag      16.20944444      16.07040355      19.01683901 
Au      15.42546990      16.09282312      21.84682336 
Ag      14.98081384      18.85809789      22.78038900 
Au      14.84178302      21.65420239      23.64210430 
Au      15.47224345      23.40808549      21.38998983 
Ag      16.24790878      25.18277327      19.19572386 
Au      16.94298722      23.52034744      16.81126936 
Ag      17.75132880      21.81655739      14.57706699 
Ag      14.75414807      22.72804308      18.62149931 
Au      15.54761810      20.99470053      16.31274485 
Au      15.28007967      18.09134067      17.16814044 
Ag      14.29699071      18.06865651      20.00976505 
Ag      13.98869751      20.92709004      20.92450909 
Au      13.41018014      20.14510980      18.15889976 
Au      13.41016427      15.20412488      19.54973269 
Au      12.53209628      17.35111053      22.23693145 
Ag      12.23013285      19.94354946      23.15075938 
Au      12.46579474      23.25967455      22.02936493 
Au      13.20315437      24.92290869      19.99433237 
Au      14.36077378      24.89068040      16.61126098 
Au      15.06238334      23.34366067      14.44853340 
Ag      15.39466305      20.03091573      13.54736843 
Au      15.12862399      17.27347812      14.22001268 
Ag      14.30948102      15.29125714      16.89012058 
Ag      12.51573648      17.45747400      17.77475346 
Ag      11.65453319      19.34810666      20.25381643 
Au      11.97941571      22.27235446      19.26277570 
Ag      12.91030461      22.28321684      16.29040739 
Au      13.29600223      19.32663461      15.43006441 
Ag      15.48627959      13.33335800      18.70694772 
Au      14.72702268      13.32661563      21.61359762 
Au      13.82344906      15.17792443      23.95238454 
Ag      13.41148219      17.94224097      24.97985261 
Ag      13.28618831      20.84949849      25.86977193 
Au      13.52070312      23.72038601      25.03648363 
Au      14.17012658      25.59647779      22.71202583 
Au      15.08184171      27.47637704      20.49125594 
Ag      15.74749407      27.42397056      17.49038656 
Ag      16.60856664      25.78413262      14.97379345 
Au      17.61873949      24.04573642      12.73583192 
Ag      17.59871960      21.06903739      11.80859973 
Au      17.38851422      18.15847353      12.61809555 
Au      17.33454606      15.27021812      13.57352380 
Au      16.48914438      13.45505175      15.89385164 
Ag      16.83558019      11.60763831      25.47106117 
Au      16.99802156      14.81108523      26.51545926 
Ag      16.77054439      17.59504083      27.45513698 
Ag      16.46529136      20.37473687      28.31488208 
Ag      15.54328222      23.28470838      29.30158371 
Ag      16.85624748      25.07516587      26.92250583 
Ag      17.66726634      26.77660457      24.66414123 
Ag      18.35659520      28.51281152      22.39197835 
Ag      18.44898427      30.54519943      19.97175466 
Ag      19.72780379      28.57620820      17.68707981 
Ag      20.60475235      26.86024736      15.46919978 
Au      21.36879776      25.09473268      13.26794148 
Ag      21.63449521      23.56953385      10.49959736 
Ag      21.72615735      20.51505815      11.67137423 
Ag      21.59154016      17.71510067      12.58246627 
Ag      21.28821212      14.91213166      13.43339919 
Ag      20.60094445      11.80959106      13.97236429 
Ag      20.05649098      11.95677609      17.14603606 
Au      19.25008298      11.96223676      19.95455663 
Ag      18.28321475      11.96933213      22.72721014 
Ag      11.35875340      14.52977890      17.47559030 
Au       9.59206415      18.39066793      22.77211121 
Au      10.09660327      24.86594350      20.66883796 
Ag      12.53527788      25.00058720      14.24426052 
Ag      13.23540963      18.42173348      12.18018048 
Ag      12.05223082      27.38642577      21.74279163 
Au      10.78815453      18.59439102      26.11270238 
Ag      12.83893977      12.11094653      19.29711332 
Au      15.73505003      16.52891999      10.77194486 
Au      15.07743281      26.50767203      12.55856769 
Ag      14.60621996      26.65651524      25.45904298 
Ag      17.78249910      28.59435673      15.37155151 
Ag      19.38730862      18.89437389      10.47122878 
Ag      17.13182153      10.96915799      17.57588780 
Ag      14.14005607      15.74075278      27.03608958 
S      11.33117629      22.93395669      14.45442144 
S      11.57980059      18.43434968      13.92747063 
S      10.18291554      16.60086127      17.82356763 
S       9.23782572      19.73125710      20.88303744 
S       9.94857596      23.58368160      18.70654988 
S      13.21754203      27.28221388      13.78136285 
S      10.06338163      26.24404689      22.56894450 
S       9.66656027      17.04834734      24.71395223 
S      11.98837890      12.24602708      17.03717457 
S      14.46693433      18.40672757      10.10137015 
S      13.10139787      26.43606670      18.03436351 
S      11.25087457      22.15377865      23.83247018 
S      11.80260578      15.10849162      21.48556286 
S      14.07808327      15.02276160      14.41346854 
S      15.01674404      22.16083139      12.27348106 
S      16.89596622      25.85130322      11.22770451 
S      13.53546189      29.22145536      21.19950758 
S      11.77362856      20.04000245      27.66755887 
S      13.50346050      11.24599345      21.45865293 
S      16.96554743      14.57980071      11.25386753 
S      18.45207214      20.92129034       9.48122666 
S      16.05515601      29.73013330      16.64888598 
S      12.82752449      25.41401464      26.62770973 
S      13.09637100      13.85788305      25.85261442 
S      16.42849745      11.10860167      15.23970825 
S      20.69463046      16.83884444      10.45150475 
S      19.61609198      28.41353553      13.79600747 
S      16.06520622      28.59516520      25.20950954 
S      14.77086722      17.17855969      28.88761125 
S      17.80259607      10.01157870      19.69443726 
S      20.78050886      10.10160862      15.65927721 
S      20.26100896      13.14922152      12.01220492 
S      22.68796424      21.59135477       9.62913460 
S      20.56897065      25.67354544      11.01858558 
S      19.87794452      31.03680097      18.10159425 
S      16.97578953      30.51706159      21.87032039 
S      16.30107585      25.56857353      29.30892833 
S      14.51980490      21.14423408      29.67258469 
S      16.92351059      12.62408252      27.65734150 
S      16.57245167      10.30730790      23.47212439 
C       9.63528040      23.30075874      15.05094431 
C      10.27217534      19.65686107      13.54300981 
C       9.23600744      17.02703250      16.31255328 
C       8.06547033      18.80543411      19.81901542 
C       8.43488456      22.56312609      18.84273414 
C      12.09044233      27.95404307      12.49029646 
C       8.69475068      27.44135705      22.28309860 
C       7.94776153      17.06633655      25.37068108 
C      10.44088840      11.24481718      17.06169719 
C      13.32825314      17.75397331       8.81112878 
C      11.41976443      26.61120533      17.32012098 
C       9.44354107      22.33183094      23.55271061 
C      10.01900669      15.14238923      21.06907496 
C      12.30847621      14.94231389      13.93872198 
C      13.36308026      22.09139888      11.47343478 
C      16.13747416      24.90937059       9.84685861 
C      12.95585658      29.93408455      19.61098270 
C      10.61567928      21.46411877      27.77917961 
C      12.08319055      11.51328387      22.58847837 
C      15.70048555      13.26417797      11.43691978 
C      17.14325464      20.38900547       8.30988557 
C      14.75674518      30.25853180      15.46475126 
C      11.22788145      26.15100353      26.12487573 
C      11.28346519      13.97023324      26.09536870 
C      14.70777291      10.48611816      15.12753441 
C      22.01477275      17.17780688       9.21409134 
C      20.49679705      30.01721787      13.99022645 
C      16.43271034      29.10832778      26.93738988 
C      15.35828326      15.99328115      30.16642010 
C      18.92144193       8.63255644      19.22001821 
C      19.47450649       8.87294350      15.24974603 
C      21.51912117      12.61872979      10.78585137 
C      21.82874775      21.19897074       8.05314922 
C      21.59898592      27.04396110      10.37584897 
C      18.88031429      32.08154820      16.96606811 
C      17.53522464      31.85838865      22.99088484 
C      14.79927636      26.59807292      29.56035283 
C      14.78207100      20.69406658      31.43168298 
C      15.29525829      12.29096102      28.43896623 
C      17.37997814       8.68473768      23.75244569 
H      31.99501745      22.17763158      25.41004728 
H      32.05886098      23.69747205      26.34791006 
H      31.42797712      23.69954277      24.66740622 
H      31.75946046      19.43773227      26.38989158 
H      31.55130766      19.09019073      28.13234301 
H      30.70082011      20.48745045      27.37760512 
H      32.39691450      17.78173376      24.16708101 
H      32.65977245      16.03379857      24.43452384 
H      31.29853248      16.87753128      25.24754908 
H      33.76581399      18.72956775      20.46288992 
H      32.38997257      17.83104220      21.20758862 
H      32.88998313      19.41713321      21.86628283 
H      33.38266131      23.31001294      21.72743189 
H      32.43492683      22.07498157      20.82535039 
H      32.58623413      21.96753962      22.60640097 
H      30.02222866      27.88792655      27.90988909 
H      29.25239329      26.86184455      29.15829570 
H      28.65456842      28.52519372      28.87398446 
H      32.02637401      28.31470799      17.60955735 
H      33.04067909      26.96543831      18.20877540 
H      32.15621085      28.00731336      19.36683822 
H      33.11115703      16.55546663      14.42918442 
H      33.74695276      16.43980127      16.09942456 
H      33.47471623      18.04454852      15.35180999 
H      30.24269527      10.20807076      24.11212934 
H      31.03900349      11.52820501      25.01958908 
H      31.15515142      11.47207488      23.23703310 
H      28.76093517      18.43080645      32.07812937 
H      28.42499761      16.74861154      31.55934349 
H      27.37549641      17.53548089      32.78029830 
H      30.41190121      27.15806357      22.74300561 
H      30.17288352      25.69812761      23.74862510 
H      29.76781414      27.31363969      24.41546895 
H      32.15721296      22.12127605      16.51647677 
H      31.89600178      22.24721126      18.28325941 
H      31.74498728      23.71001036      17.25439806 
H      31.40419513      14.97927242      18.45502970 
H      31.09086679      13.63646133      19.60940543 
H      31.32481199      15.30502456      20.22108720 
H      28.79724176      13.85116548      26.91059383 
H      28.41775196      14.97359333      28.26969761 
H      29.18317077      15.60188247      26.77889276 
H      28.24071826      22.98770359      29.70982352 
H      28.69850357      21.70534482      28.55019391 
H      27.95224495      21.26022628      30.12138868 
H      24.13294397      24.25496727      31.64506899 
H      25.55200503      25.35490754      31.73000156 
H      25.59969668      23.88163290      30.69133796 
H      28.96252828      30.66806476      21.25494576 
H      28.28764635      29.23263560      22.10155813 
H      27.29086701      30.69985100      21.90420582 
H      31.59169039      21.50875459      12.91211770 
H      30.78240960      22.06936826      14.41898015 
H      30.18123994      22.61751610      12.83097196 
H      28.51291135      10.93224277      17.53823193 
H      29.57986771      10.36394275      18.86225007 
H      29.35131242      12.12263364      18.56977156 
H      24.72456176      12.38803049      29.35249322 
H      25.77112747      13.09726591      30.62473233 
H      26.05965686      13.48159301      28.89121399 
H      24.84325305      21.14600800      32.63693398 
H      24.77825779      19.52395725      31.89131075 
H      23.82273741      19.86819238      33.36937949 
H      27.22530502      30.31690344      24.94287240 
H      26.55121643      29.18832263      26.15273628 
H      26.04727076      30.91051625      26.15501148 
H      29.83725478      27.19690746      13.97801899 
H      30.64293793      25.60075632      14.04214251 
H      30.00924165      26.33657894      15.54023740 
H      29.92972594      13.56108775      13.69842386 
H      30.17847853      12.95885819      15.36474573 
H      30.19290247      14.71610282      15.04372503 
H      26.24322148       9.34820714      25.77528923 
H      26.63058575      10.63399719      26.96009301 
H      27.01934745      10.87409099      25.23213701 
H      18.25803961      16.49047132      31.84494163 
H      18.45476283      18.23822498      31.53530629 
H      19.42753362      17.43722635      32.80994316 
H      19.57264918      29.86833280      27.72436976 
H      20.15887397      30.14588494      26.06066081 
H      21.10220048      30.75457410      27.45800701 
H      25.64322362      29.49355509      13.49242667 
H      23.95474077      29.84917956      13.96198335 
H      24.37386745      28.24404040      13.29522255 
H      25.34809011      16.65698172      10.10072450 
H      25.16676620      15.31725402      11.27058789 
H      26.74854728      15.60596158      10.47561748 
H      21.85170117       8.28873326      20.78573979 
H      21.54798785       8.98563034      22.40655246 
H      22.93202226       7.87202519      22.15144590 
H      21.63244562       8.20887161      24.88887531 
H      21.24878713       8.37393573      26.62693351 
H      22.56462931       9.35457273      25.90083713 
H      19.90181983      11.95390419      30.74564202 
H      18.58535278      12.64610102      29.73818914 
H      19.47103285      13.68734873      30.90869690 
H      18.89312463      20.12823121      33.13804566 
H      19.01246597      21.85728327      33.58498987 
H      20.34229210      21.07196469      32.66450993 
H      19.77771799      27.84675659      30.16680529 
H      19.59063966      26.96382890      31.71820169 
H      18.36118987      26.76093938      30.41832236 
H      22.12139627      32.98123749      23.48364659 
H      23.04257696      31.55912259      24.08965388 
H      21.45938414      31.98743931      24.81938604 
H      23.86769100      31.52040250      16.77854762 
H      23.83371727      32.73776940      18.09639715 
H      22.33453120      31.83592486      17.67225590 
H      26.49768868      26.32290927      10.21212726 
H      27.00478969      26.25858035      11.93475794 
H      25.93834765      27.57690125      11.35824881 
H      26.87205036      21.01633739       8.92875657 
H      25.12425018      20.75787108       9.25060014 
H      26.30580210      19.43300834       9.54830961 
H      25.73505157      12.85067684      11.52077571 
H      25.81194268      11.20929373      12.23378604 
H      26.62161660      12.58753691      13.06233616 
H      24.54955881       8.14534300      16.52530131 
H      22.89885910       8.84137961      16.67197979 
H      23.76948267       8.26128319      18.13387034 
H       9.11640143      23.91039679      14.30292770 
H       9.64902961      23.81921748      16.01547049 
H       9.10694942      22.34593454      15.16643572 
H       9.75920063      19.33297373      12.63024332 
H      10.68312483      20.66450218      13.41553190 
H       9.56169490      19.66079236      14.37898036 
H       8.46932313      16.26244193      16.14543418 
H       9.88887229      17.10571793      15.43654827 
H       8.74999301      17.99521246      16.48618682 
H       7.86168638      19.43882289      18.94634098 
H       7.13414746      18.63657210      20.36989712 
H       8.49317731      17.85596527      19.47962612 
H       8.42525515      21.87750064      17.98647620 
H       7.56402851      23.22676806      18.79284535 
H       8.42484830      21.98887357      19.77470894 
H      12.53483413      28.86564124      12.07466234 
H      11.13876121      28.19942560      12.97653891 
H      11.91614777      27.22936074      11.69020598 
H       7.73940801      26.91425962      22.38569039 
H       8.75828260      27.89925818      21.29225401 
H       8.76942875      28.21938428      23.05223803 
H       7.32226579      16.47796154      24.68935116 
H       7.55723105      18.08487814      25.44585036 
H       7.95927846      16.59590721      26.36083790 
H       9.90558881      11.41466956      16.12018865 
H       9.79388472      11.51625296      17.90052790 
H      10.71313372      10.18576931      17.13919157 
H      13.91797636      17.50415691       7.92164201 
H      12.61126194      18.54616881       8.56500120 
H      12.79115143      16.86694580       9.15800925 
H      11.50985400      27.20009094      16.39962392 
H      10.79759845      27.13713022      18.05466384 
H      10.98295730      25.63093296      17.10551643 
H       9.18503709      23.39171377      23.65757642 
H       8.92841550      21.73239000      24.31284292 
H       9.16973120      21.97228866      22.55563580 
H       9.76350429      14.19428450      20.57976069 
H       9.77692388      15.97413914      20.40139672 
H       9.46429380      15.24274765      22.00993916 
H      12.23084162      15.04576550      12.84960732 
H      11.72424496      15.73143833      14.42145555 
H      11.93547559      13.95887824      14.25139679 
H      13.41820423      21.35391774      10.66367870 
H      13.13231293      23.08404414      11.06854239 
H      12.59354938      21.80472994      12.19738721 
H      15.56617340      25.60131456       9.21828499 
H      15.49520640      24.10557134      10.22237659 
H      16.96340087      24.47414574       9.27041488 
H      13.76855698      30.54763758      19.20276130 
H      12.07961615      30.56080919      19.81393834 
H      12.70083823      29.15024547      18.88984732 
H      11.12447858      22.22785424      28.38081203 
H       9.69695034      21.14527059      28.28304209 
H      10.38644326      21.87686382      26.79093536 
H      11.33975467      10.73217559      22.39139223 
H      11.64197383      12.50602860      22.44124557 
H      12.45314151      11.42892717      23.61772861 
H      15.26347211      13.05928826      10.45325357 
H      14.92501143      13.56134268      12.15256499 
H      16.22108385      12.37282685      11.80909448 
H      17.61271186      19.90219805       7.44753741 
H      16.60783367      21.28526391       7.97410475 
H      16.43323878      19.70170873       8.78284800 
H      15.16338302      31.04357783      14.81728478 
H      13.92000027      30.66416679      16.04626044 
H      14.39953592      29.42081995      14.85600326 
H      10.42709303      25.44706274      26.38013638 
H      11.19520162      26.35936096      25.05112767 
H      11.09243984      27.08210176      26.68809048 
H      10.79627536      13.32417989      25.35542371 
H      10.92205157      14.99568068      25.97298788 
H      11.05440795      13.61039075      27.10544722 
H      14.32370871      10.74256491      14.13298089 
H      14.05978082      10.93452506      15.88834165 
H      14.72695700       9.39645126      15.24484749 
H      21.56733904      17.16509338       8.21347587 
H      22.76345799      16.37990596       9.28667635 
H      22.49820900      18.14520608       9.38904670 
H      19.87134863      30.81870429      13.58064251 
H      21.43032605      29.95774466      13.41757400 
H      20.73006302      30.22828026      15.03980291 
H      17.20449146      29.88644749      26.90131537 
H      16.79154963      28.26972208      27.54508112 
H      15.52158752      29.52399311      27.38301052 
H      14.50209471      15.42293484      30.54457517 
H      15.79601654      16.57429945      30.98712089 
H      16.11383916      15.30834742      29.76657981 
H      18.31313501       7.82932904      18.78753941 
H      19.41211410       8.26838454      20.13045405 
H      19.68007322       8.95710543      18.49913266 
H      19.81846456       8.28711267      14.38961016 
H      18.52283753       9.35977499      15.01288183 
H      19.33937760       8.20762750      16.11054281 
H      21.58687530      13.40581338      10.02515960 
H      21.18354315      11.68566701      10.31872288 
H      22.49729152      12.46634691      11.25505637 
H      22.09624209      21.96339729       7.31492593 
H      20.74216272      21.16981292       8.19169090 
H      22.18189762      20.22038837       7.70679861 
H      21.39918895      27.14385326       9.30227513 
H      22.66519444      26.85239442      10.54293420 
H      21.28919089      27.95852417      10.89620661 
H      19.42441930      32.18031622      16.01943971 
H      18.76716834      33.07063922      17.42432392 
H      17.89592676      31.63781518      16.78036029 
H      17.13608009      32.81126686      22.62429837 
H      18.62825654      31.91175786      23.04251466 
H      17.12491127      31.64735396      23.98598712 
H      15.06979171      27.64699563      29.39130405 
H      14.46615570      26.47217322      30.59680017 
H      13.99660139      26.31322894      28.87251965 
H      14.58040452      19.62034717      31.52824116 
H      14.07189370      21.25651326      32.04866176 
H      15.80603431      20.91277387      31.75320743 
H      15.28530558      11.23833659      28.74590237 
H      14.47103697      12.48782720      27.74576442 
H      15.19431503      12.93022295      29.32373707 
H      17.54216617       8.22418263      22.77027935 
H      16.70627326       8.05385126      24.34377892 
H      18.33682084       8.79808507      24.27456551 
