646
Properties=species:S:1:pos:R:3 i=116 optimized=T E=-9963.7602243602 pbc="F F F" jobid=246_80-Ag-39_8-000004-PBE
Au      21.87075644      20.21602674      20.92566947 
Au      24.76519052      20.19350181      21.84232305 
Ag      20.46247852      22.71074718      20.45544230 
Ag      19.71869721      20.98675864      22.70717498 
Ag      19.98024141      18.19835355      21.84232504 
Ag      21.15023838      23.52142880      23.17064053 
Ag      20.37637733      21.80238015      25.42788565 
Au      20.63912557      19.00285807      24.57710254 
Au      20.90947628      16.20521957      23.69272273 
Au      21.85377537      16.13002064      20.88740438 
Ag      22.77651457      16.14166626      18.08918602 
Au      23.07413861      18.90502601      17.19908500 
Au      23.28176449      21.72242196      16.34760059 
Au      22.62054196      23.48318868      18.61086821 
Ag      21.90966174      25.18833771      20.87671027 
Ag      23.36146326      22.70178248      21.35441162 
Au      22.58554924      21.02165892      23.63769570 
Ag      22.87500837      18.19915589      22.79000268 
Au      23.81993384      18.14135592      19.98804507 
Au      24.09324420      20.96582327      19.09647902 
Au      20.85925771      14.03049810      19.00869647 
Au      21.82919472      14.12604425      16.15653564 
Ag      22.12606237      16.87558743      15.29781519 
Ag      22.36801639      19.69857995      14.40543930 
Au      22.61956835      22.50566826      13.55762384 
Au      21.97104158      24.36168787      15.81006270 
Ag      21.21085007      26.07012792      18.11313250 
Au      20.51267732      27.78902096      20.42828329 
Au      25.28996824      22.45638050      14.43062838 
Ag      24.74284908      24.30688827      16.71630004 
Au      24.03452121      25.97314026      18.96629826 
Au      23.24459631      27.72040082      21.26372195 
Au      22.56489089      26.05046687      23.63275125 
Ag      21.75800918      24.37103186      25.87818119 
Ag      20.91194063      22.61831337      28.17386205 
Au      21.27215838      19.76876564      27.38622547 
Au      21.55828895      17.01579097      26.47399640 
Au      21.76730908      14.14231116      25.57681648 
Au      22.78119697      14.07497959      22.77698433 
Ag      23.68495936      14.09652139      19.97874643 
Ag      24.55214304      14.09777878      17.06830584 
Ag      24.94615048      16.85982052      16.22469563 
Ag      25.16766582      19.65417328      15.34615076 
Au      23.60117867      19.02247112      25.58519510 
Au      23.73986718      16.21706046      24.72041660 
Au      24.76832042      16.11417140      21.90621718 
Ag      25.57336572      16.09013033      19.03969819 
Au      25.99453993      18.91599025      18.17086852 
Au      26.18841124      21.72858360      17.24284555 
Au      25.58211020      23.46882021      19.55311830 
Au      24.76607607      25.20060920      21.74972176 
Ag      24.06339903      23.54849573      24.12501046 
Au      23.18103200      21.85804829      26.32800175 
Au      26.23546113      22.76724366      22.33440366 
Au      25.49352496      21.02739484      24.64984596 
Au      25.75402009      18.12740557      23.78094853 
Ag      26.70449824      18.09896714      20.90824398 
Au      27.02028508      20.95664160      20.00568430 
Ag      27.59602097      20.19347108      22.79621766 
Au      27.57933648      15.19876805      21.33760854 
Au      28.52239104      17.42320019      18.64308511 
Au      28.86154077      19.99884575      17.75394045 
Au      28.52462206      23.37112514      18.81233112 
Au      27.84340121      25.05536772      20.89967085 
Ag      26.66648003      24.98746090      24.21471390 
Ag      25.91687964      23.39707123      26.44178881 
Au      25.67474403      20.04427760      27.55634740 
Au      25.82795438      17.36061969      26.85046725 
Au      26.77540370      15.29674904      23.96629620 
Au      28.48090764      17.52091251      23.11177925 
Au      29.33107909      19.42425799      20.67618716 
Au      28.99903809      22.32006600      21.55635361 
Ag      28.03393250      22.40399374      24.55257955 
Au      27.70936996      19.35110659      25.51200789 
Au      25.47652270      13.31264374      22.18570861 
Au      26.28832666      13.35264265      19.17200760 
Ag      27.26410608      15.19237126      16.95781500 
Au      27.53153912      18.03588590      15.93594508 
Au      27.68910084      20.97120180      14.96935885 
Au      27.44427889      23.79066499      15.84419526 
Au      26.84116979      25.64745720      18.16373777 
Ag      26.00669623      27.48853572      20.42010628 
Au      25.14627685      27.44983433      23.35998772 
Au      24.38255398      25.82128477      25.84760531 
Ag      23.48477952      24.03202486      28.12656850 
Au      23.23037816      21.24283417      29.03994589 
Au      23.52692349      18.24433938      28.38681632 
Au      23.56151308      15.27558232      27.45891050 
Ag      24.61095654      13.56466327      25.08047050 
Au      24.30095397      11.67560876      15.23933523 
Ag      23.99732943      14.86304623      14.29903285 
Au      24.17064307      17.62636932      13.46178835 
Ag      24.43804746      20.39060437      12.52637158 
Au      25.54317582      23.30267947      11.53654002 
Ag      24.10836385      25.08711162      13.99671473 
Ag      23.34932287      26.86382790      16.20578780 
Au      22.68404604      28.50886239      18.54813533 
Ag      22.50954458      30.63145471      20.80348126 
Au      21.25900295      28.60584912      23.24444586 
Au      20.30789792      26.89476685      25.39836831 
Au      19.53122704      25.12546059      27.62946640 
Au      19.35620771      23.65136824      30.55765292 
Au      19.25590779      20.43406727      29.26476249 
Au      19.35447530      17.66557912      28.32154944 
Ag      19.72487453      14.91599664      27.51898103 
Au      20.49560604      11.82543007      27.07053357 
Au      21.06313425      12.01381764      23.69417586 
Ag      21.82738647      12.01149192      20.90079680 
Au      22.70436619      12.09043241      18.10875417 
Au      29.71119242      14.25756663      23.46866168 
Au      31.50498585      18.27962679      18.13670080 
Au      30.92051817      24.88941097      20.26642223 
Au      28.54758962      24.97987681      26.68397860 
Ag      27.94396780      18.42509791      28.74828325 
Ag      28.96798517      27.44628297      19.10785529 
Ag      30.18761091      18.80268786      15.02492233 
Ag      28.01221393      11.97413516      21.61787099 
Ag      25.42599651      16.53705166      29.86326507 
Au      25.75590516      26.38572162      28.40221210 
Ag      26.39428082      26.68385941      15.38706686 
Au      23.22655254      28.74722603      25.74401507 
Au      21.67360603      18.81151814      30.68731808 
Au      23.99852234      10.88332317      23.25281349 
Ag      26.89006411      15.91452868      13.97243839 
S      29.64261618      22.93172862      26.39032246 
S      29.50263778      18.45032391      26.91737027 
S      30.66131358      16.37231236      23.08201668 
S      31.75339184      19.50397598      20.12490799 
S      31.01341284      23.55906957      22.20333800 
S      27.66603735      27.10599709      27.19953026 
S      31.00766944      26.29885615      18.39292981 
S      31.47179823      17.05840562      16.12940936 
S      28.95772135      12.06607137      23.85802695 
S      26.86284418      18.21480327      30.88085480 
S      28.01717746      26.58760544      22.82703247 
S      29.90519006      22.15894330      17.20545002 
S      29.00594063      15.12818485      19.32006679 
S      26.77763129      15.11648241      26.40397560 
S      26.11743694      22.18037865      28.65623602 
S      23.93568780      25.84352977      29.77853820 
S      27.48979789      29.29675459      19.59993784 
S      29.37562590      20.33918027      13.34690466 
S      27.41756092      11.19440517      19.40949320 
S      24.13991863      14.48316482      29.66913363 
S      22.70070087      20.82785521      31.38146123 
S      24.92356480      29.66128552      24.37338322 
S      28.22762240      25.45418248      14.27468221 
S      27.89183448      13.89731045      14.93208159 
S      24.47844013      11.13746093      25.55887292 
S      20.49652858      16.79522009      30.34983058 
S      21.43162329      28.19964153      27.17451690 
S      24.96855860      28.64866193      15.61402012 
S      26.19891303      17.33369881      12.09822431 
S      23.46568013      10.11558030      21.07864946 
S      20.20178091      10.32802889      25.26884770 
S      20.70781905      13.12733625      29.01361969 
S      18.38703530      21.62171044      31.24008075 
S      20.27646693      25.72041544      29.92846942 
S      21.10914977      30.99860056      22.73343034 
S      24.00038436      30.55030659      18.90219958 
S      24.69475549      25.50204258      11.60804552 
S      26.45206078      21.15879139      11.22037150 
S      24.16159476      12.65347137      13.10728869 
S      24.44598291      10.55865899      17.31040265 
C      31.33181734      23.33608872      25.80249633 
C      30.82056835      19.67583484      27.25624280 
C      31.66588547      16.79185115      24.55431792 
C      32.82806174      18.52723287      21.23943846 
C      32.49074340      22.48522937      22.06761694 
C      28.78739210      27.75446495      28.50637293 
C      32.34778113      27.50839153      18.75257644 
C      33.16908247      17.21860179      15.43514730 
C      30.45976787      11.00476944      23.78118845 
C      28.00909506      17.27213126      31.97187133 
C      29.72829317      26.74049865      23.47453739 
C      31.64206596      22.22571462      17.78189201 
C      30.79642875      15.01989334      19.70236931 
C      28.51478593      14.91108445      26.95352028 
C      27.76916242      22.11603716      29.45648485 
C      24.66356420      24.88076011      31.16485904 
C      28.15131268      30.01993587      21.15440074 
C      30.49591367      21.79395722      13.37988407 
C      28.90224558      11.40465290      18.35041564 
C      25.33784085      13.13190308      29.34467581 
C      24.20643832      20.38405961      32.32161193 
C      26.34839400      30.07956901      25.44292670 
C      29.78380248      26.20459516      14.88377535 
C      29.69484559      14.03221143      14.60980494 
C      26.14954283      10.42718813      25.81340927 
C      19.18777163      16.84129439      31.63727338 
C      20.45317576      29.75319127      27.22853737 
C      24.60932241      29.14645566      13.88055201 
C      25.69108634      16.15355742      10.78442438 
C      22.42057295       8.63912243      21.40842828 
C      21.41622680       8.97611173      25.51864849 
C      19.44361465      12.47009062      30.16940393 
C      19.25558305      21.11902976      32.77551831 
C      19.16981851      27.00343012      30.62773308 
C      22.07085452      32.02201149      23.91560474 
C      23.48935561      31.80964062      17.67647519 
C      26.14473154      26.60123936      11.35915173 
C      26.18878192      20.77497992       9.44589917 
C      25.77481835      12.33525683      12.29037454 
C      23.71269041       8.89980501      17.04651511 
Ag      18.99290499      20.21010299      19.98342720 
Ag      16.12927646      20.21657766      19.07183449 
Au      21.16003143      20.98671932      18.19412738 
Au      20.90469054      18.18538646      19.05620627 
Au      19.75343117      23.51853164      17.73510944 
Ag      20.49960950      21.77123807      15.48817384 
Ag      20.20134032      18.98026340      16.32110314 
Au      19.96994742      16.19079766      17.19513313 
Ag      19.01796022      16.15524752      19.95403918 
Au      18.14941163      16.18414016      22.79267420 
Ag      17.81776690      18.92649358      23.64477948 
Au      17.60844508      21.71992830      24.52592559 
Au      18.30899350      23.47670228      22.28343913 
Au      19.11430366      25.20655718      20.03582297 
Ag      17.54071822      22.73446456      19.53721541 
Au      18.27259687      21.01616473      17.26421043 
Ag      17.99716287      18.21675497      18.10820595 
Au      17.08924366      18.19481019      20.90093126 
Au      16.83244818      20.98738118      21.76961069 
Ag      20.00398136      14.04358277      21.86632265 
Au      19.05798289      14.06897624      24.73260492 
Ag      18.73500479      16.87310722      25.58178584 
Ag      18.50583101      19.71467430      26.47282310 
Au      18.21570506      22.54959554      27.27109764 
Ag      18.89211647      24.33022607      25.02077289 
Au      19.73463925      26.08310173      22.75619424 
Ag      15.47954079      22.54166535      26.40554696 
Au      16.07072496      24.32714571      24.11750357 
Ag      16.94357863      25.98277570      21.87703664 
Ag      17.80105373      27.76794476      19.61908764 
Ag      18.39076271      26.06450815      17.26993902 
Ag      19.10009753      24.32570444      15.05127107 
Au      19.92897295      22.57416306      12.80013023 
Au      19.57988747      19.73664378      13.55984252 
Ag      19.30851929      16.99871734      14.43975889 
Ag      19.05468972      14.13302253      15.36202608 
Ag      18.03435004      14.05100773      18.09571900 
Au      17.26548576      14.09674803      20.89652871 
Au      16.38727583      14.11742842      23.82206746 
Ag      15.89321620      16.85247276      24.67839476 
Au      15.72818591      19.63187558      25.49629539 
Au      17.29111701      19.03284137      15.33949847 
Au      17.14420910      16.20674895      16.24526553 
Au      16.08823402      16.15499519      19.00728299 
Au      15.29594291      16.10742933      21.88469835 
Au      14.83719645      18.88097087      22.76415565 
Au      14.72604764      21.68394082      23.64877451 
Au      15.30017644      23.56428372      21.38345640 
Au      16.20807999      25.26439491      19.13779917 
Au      16.80588525      23.57181294      16.78438580 
Ag      17.63682702      21.85049417      14.58057951 
Au      14.67670121      22.76822900      18.60719627 
Ag      15.40007147      21.01779171      16.32802467 
Ag      15.12458524      18.16023661      17.15629562 
Au      14.17315128      18.13672790      19.99862796 
Au      13.93101961      21.00379757      20.90813365 
Ag      13.28846522      20.21303105      18.15591679 
Au      13.18847084      15.30637310      19.62509632 
Ag      12.41898170      17.33661350      22.26497936 
Ag      12.14549671      20.02899783      23.17644131 
Au      12.40092834      23.43647384      22.05291853 
Au      13.09777195      25.12373053      19.97526032 
Ag      14.28474708      25.00781502      16.75596732 
Ag      14.98291168      23.38241327      14.48232479 
Au      15.27601686      20.15713548      13.48224571 
Ag      15.08769160      17.43156916      14.22411581 
Au      14.01313949      15.39006526      17.00850178 
Ag      12.27588370      17.57496473      17.88964746 
Au      11.60857523      19.38125284      20.30407438 
Au      11.92126941      22.39268124      19.33363707 
Ag      12.85123192      22.41578376      16.38989540 
Au      13.17941664      19.39584524      15.46669340 
Au      15.32639560      13.39178926      18.75885340 
Au      14.64054468      13.33742743      21.71392474 
Ag      13.60294520      15.11956177      23.91726004 
Ag      13.27913691      18.00894169      24.99403756 
Au      13.19398701      20.90039781      25.88077000 
Ag      13.24817279      23.73888711      24.87836460 
Ag      14.02117606      25.80405379      22.68890717 
Au      15.05463900      27.48192234      20.40197423 
Au      15.87502081      27.47631955      17.46943879 
Ag      16.52248375      25.81557418      15.04208859 
Au      17.45207620      24.01738065      12.75873627 
Au      17.59831693      21.20853252      11.85375545 
Au      17.33664501      18.25185484      12.54078105 
Au      17.19686455      15.34886988      13.56988609 
Ag      16.14965232      13.58691593      15.83954654 
Au      16.53227545      11.67677331      25.59602151 
Ag      16.86726667      14.85860414      26.59342305 
Au      16.67148421      17.60959961      27.42998879 
Au      16.41539788      20.45980245      28.22586756 
Au      15.31047653      23.32248257      29.35535490 
Au      16.62891031      25.17050007      26.76171090 
Ag      17.55664311      26.84963661      24.59244064 
Ag      18.42135692      28.58710843      22.36271279 
Ag      18.55047228      30.64254270      19.93931310 
Au      19.82851321      28.58034402      17.63974320 
Au      20.55440233      26.83796882      15.41040564 
Ag      21.23558663      25.13596444      13.15630648 
Au      21.48483275      23.51707187      10.33670772 
Ag      21.55382172      20.43904011      11.63027002 
Ag      21.46493499      17.68036420      12.58599824 
Ag      21.13508580      14.88359494      13.44054408 
Ag      20.34508843      11.82209757      13.92833347 
Au      19.89394544      12.01443691      17.15068201 
Ag      19.07246500      12.01562414      19.96043426 
Ag      18.19054444      12.01125294      22.76251750 
Au      11.14061868      14.34575063      17.47619712 
Au       9.56263600      18.29400147      22.90836984 
Au      10.06105560      24.99762386      20.76549957 
Ag      12.35941259      24.90374743      14.41302895 
Ag      13.00953505      18.47304623      12.32472044 
Au      11.96158090      27.80115654      21.91276363 
Au      10.66229462      18.64529956      26.18387763 
Au      12.88493084      11.75179475      19.18374923 
Au      15.49994138      16.60110324      10.85696655 
Au      14.89644646      26.43766201      12.67541373 
Au      14.25389589      26.82707534      25.51198159 
Ag      17.81550722      28.62264357      15.36794877 
Au      19.31193689      18.77956481      10.22826938 
Ag      17.00278968      11.13100627      17.72202619 
Ag      13.93127912      15.75361362      26.94227107 
S      11.16673381      22.83208883      14.59875508 
S      11.40694310      18.32037711      14.11552389 
S      10.04725740      16.38673829      17.86472686 
S       9.25210447      19.62467279      21.00510190 
S       9.82868826      23.60670707      18.88549875 
S      13.00221882      27.17180573      13.87709943 
S      10.11906634      26.48351628      22.59680610 
S       9.64646277      16.97289397      24.86138292 
S      11.99971583      12.18707177      17.03320929 
S      14.12828944      18.40748348      10.18529161 
S      12.82173029      26.61031531      18.02426325 
S      11.06048930      22.25766121      23.74451740 
S      11.80280653      14.98428925      21.64290191 
S      14.09263839      15.12538494      14.57832426 
S      14.63065232      22.20118864      12.25957104 
S      16.75817340      25.90057970      11.34898537 
S      13.67843108      29.28451135      21.30492182 
S      11.57628605      20.26804728      27.60930821 
S      13.66006982      11.13631659      21.31413005 
S      16.82833545      14.69429468      11.24659400 
S      18.28801935      20.79836272       9.53731481 
S      16.02314296      29.74560312      16.61187354 
S      12.68825066      25.42757070      26.59804187 
S      12.97108667      13.78796601      25.90455375 
S      16.44041893      11.19277024      15.33795960 
S      20.47595487      16.74633311      10.49005828 
S      19.54482508      28.28139307      13.69150010 
S      15.69624367      28.52520306      24.72717230 
S      14.59729363      17.27043311      28.71156537 
S      17.59031007      10.03832230      19.83769619 
S      20.57986054      10.17347418      15.66520594 
S      20.06316678      13.17153285      11.97033737 
S      22.58551275      21.55043953       9.64597663 
S      20.47146549      25.58656554      10.81296990 
S      19.93570545      31.02601597      18.01538532 
S      17.05676873      30.59948184      21.81023410 
S      16.15305245      25.50728350      29.16377275 
S      14.49509460      21.13645116      29.63776063 
S      16.69295325      12.63829454      27.74204027 
S      16.37368087      10.47722004      23.58121831 
C       9.49597960      23.18794343      15.26937486 
C      10.03456955      19.48612399      13.77141215 
C       9.04102708      16.73262290      16.37282638 
C       8.13941873      18.68508996      19.89291230 
C       8.35167208      22.55627346      19.13923055 
C      11.85096258      27.73316759      12.55328708 
C       8.67926425      27.60614335      22.37906904 
C       7.91304377      16.91700466      25.47736403 
C      10.52353370      11.09439387      16.93845519 
C      12.94626368      17.64095934       9.00006284 
C      11.09564352      26.62867562      17.40626768 
C       9.27640660      22.52941747      23.40245385 
C      10.00848830      14.85456498      21.27450102 
C      12.40641519      14.74698201      13.95692378 
C      12.92885112      21.99992111      11.60493547 
C      16.05810743      25.01336838       9.90141831 
C      13.06267480      30.06565530      19.76139482 
C      10.38256600      21.66218083      27.55651651 
C      12.17341324      11.16800678      22.38875532 
C      15.64281266      13.30255216      11.40952427 
C      16.86415451      20.31515283       8.49151035 
C      14.65673195      30.11930131      15.44999358 
C      11.02762243      26.13856725      26.28186819 
C      11.16817946      13.82793514      26.24492910 
C      14.79596179      10.40293905      15.13719630 
C      21.82610996      16.85614440       9.24620368 
C      20.52711011      29.83226542      13.77176136 
C      16.06189775      29.48611359      26.25171793 
C      15.08717405      16.14232513      30.07769459 
C      18.70184892       8.66050986      19.33827521 
C      19.28506291       8.90542144      15.38147642 
C      21.29584253      12.56063086      10.75316891 
C      21.77522385      21.03727249       8.07961450 
C      21.56069477      26.85325489      10.05357820 
C      18.94753350      32.03083763      16.83769268 
C      17.57054655      31.99656894      22.88653774 
C      14.73824967      26.64424679      29.42591858 
C      14.82700794      20.68149588      31.38132840 
C      15.09201135      12.30890786      28.57742220 
C      17.09248242       8.82751994      23.93414696 
H      31.85488791      22.38230407      25.65799189 
H      31.84874684      23.91981373      26.57168273 
H      31.31041140      23.88167428      24.85374794 
H      31.41792026      19.79592077      26.34404833 
H      31.45483421      19.28024955      28.05820958 
H      30.40727228      20.64638200      27.54707143 
H      32.11469024      17.77611156      24.37081930 
H      32.45734047      16.04143121      24.65965285 
H      31.05316906      16.83942035      25.46045695 
H      33.81541840      18.43249241      20.77355162 
H      32.40538040      17.53961255      21.44852311 
H      32.91895818      19.08904429      22.17756283 
H      33.38283137      23.12114454      22.09713177 
H      32.47622917      21.88895309      21.14964160 
H      32.48673740      21.81452071      22.93576065 
H      29.75368781      27.98390540      28.04251150 
H      28.92352687      27.02839133      29.31257826 
H      28.34048697      28.67304192      28.90451034 
H      32.30050241      28.29059768      17.98540559 
H      33.31352532      26.99390315      18.69240260 
H      32.23181942      27.96022695      19.74153742 
H      33.14878428      16.81902264      14.41421316 
H      33.85712930      16.62512745      16.04779558 
H      33.49985105      18.26063205      15.41414114 
H      30.12727342       9.95989116      23.76990112 
H      31.06603271      11.18713921      24.67574727 
H      31.05299689      11.20984743      22.88585943 
H      28.80951233      17.94480147      32.30141564 
H      28.44689555      16.41311850      31.45572884 
H      27.44562622      16.92212820      32.84471844 
H      30.35449497      27.20953980      22.70602006 
H      30.14029567      25.76150189      23.73617646 
H      29.68277933      27.37598016      24.36706950 
H      32.22463522      21.50931736      17.18969786 
H      31.71968052      21.97105067      18.84250017 
H      32.00350906      23.24761596      17.61532314 
H      31.34367748      15.12082842      18.75774031 
H      30.98291859      14.03935236      20.15717927 
H      31.09269279      15.81128871      20.39700646 
H      28.87363965      13.94786317      26.57157366 
H      28.52322050      14.91538381      28.05047773 
H      29.14279873      15.72285139      26.57468016 
H      27.97615233      23.10873914      29.87448234 
H      28.54633582      21.86116363      28.72934519 
H      27.73416023      21.36621748      30.25600272 
H      23.82224124      24.46428059      31.73292298 
H      25.24656489      25.55167448      31.80492140 
H      25.29097879      24.06125102      30.79710402 
H      29.08263069      30.55448100      20.93611965 
H      28.32954720      29.24599191      21.91019112 
H      27.40435523      30.72774240      21.53477286 
H      31.42166146      21.52536023      12.85789653 
H      30.71619807      22.10406422      14.40706314 
H      29.99408564      22.61479119      12.85288200 
H      28.57949676      11.33990905      17.30381579 
H      29.60512647      10.59420553      18.57573029 
H      29.37995491      12.37582561      18.51717022 
H      24.77181548      12.25767681      29.00002874 
H      25.85200569      12.89540333      30.28352992 
H      26.06486098      13.41908473      28.57692106 
H      24.77269991      21.30973591      32.48097423 
H      24.82967688      19.66155637      31.78413305 
H      23.89916731      19.96844329      33.28825017 
H      27.16799984      30.38667525      24.78170870 
H      26.66339956      29.22148664      26.04542274 
H      26.06262066      30.91645267      26.09029386 
H      29.99477177      27.08423416      14.26379277 
H      30.59275173      25.47328282      14.77426213 
H      29.70940672      26.50226584      15.93381302 
H      29.87693513      13.91057934      13.53603831 
H      30.19414669      13.22307074      15.15646318 
H      30.09856067      14.99264271      14.94709040 
H      26.11121684       9.34718195      25.63330777 
H      26.42131532      10.61374004      26.85974673 
H      26.89316982      10.89188193      25.15765707 
H      18.50950449      16.00108799      31.44341654 
H      18.62644444      17.78032457      31.60151630 
H      19.65731770      16.71766639      32.62002314 
H      19.51032993      29.53053964      27.74306689 
H      20.24116894      30.12347589      26.22012176 
H      21.01676576      30.50224594      27.79671115 
H      25.53334185      29.50444427      13.41187393 
H      23.88009329      29.96512128      13.91003197 
H      24.19663478      28.31683646      13.29577645 
H      25.14854370      16.70910892      10.01027190 
H      25.04910341      15.35991774      11.18235551 
H      26.59690150      15.71326836      10.35060273 
H      22.01755873       8.30171862      20.44540301 
H      21.59178086       8.87773759      22.08291684 
H      23.04128177       7.84737605      21.84280197 
H      21.42367252       8.35595883      24.61458021 
H      21.07585756       8.37792626      26.37198011 
H      22.41934545       9.37276365      25.70641168 
H      19.77793705      11.49731709      30.54756602 
H      18.46862960      12.36713315      29.67972452 
H      19.37299040      13.17904551      31.00357688 
H      18.95150530      20.09265011      33.01269595 
H      18.93391540      21.79311719      33.57791024 
H      20.34230388      21.16302114      32.65410026 
H      19.46850259      27.96019499      30.18209053 
H      19.32361946      27.04100776      31.71245713 
H      18.11996071      26.78860324      30.40080050 
H      22.07882949      33.04909378      23.53158254 
H      23.09489956      31.65106932      24.02261805 
H      21.56895771      31.99887954      24.88980770 
H      23.92531161      31.51863726      16.71261250 
H      23.89965976      32.77672309      17.99108976 
H      22.39836966      31.87197833      17.59631462 
H      26.50460850      26.46372025      10.33334730 
H      26.94527968      26.37737131      12.07171640 
H      25.80843139      27.63609773      11.49216954 
H      26.89650681      21.35843539       8.84620164 
H      25.16143762      20.99609852       9.13651732 
H      26.39730776      19.70534555       9.31977263 
H      25.77355043      12.87430076      11.33548931 
H      25.86288819      11.25967625      12.10121638 
H      26.60642176      12.68212352      12.91413275 
H      24.40204990       8.31697104      16.42452248 
H      22.72968062       8.96707739      16.56730557 
H      23.62605228       8.43303711      18.03547780 
H       8.93729100      23.78358651      14.53897769 
H       9.54386103      23.71562400      16.22742233 
H       8.98707205      22.22689725      15.41584190 
H       9.49203678      19.13521647      12.88617394 
H      10.40338064      20.50528772      13.61270875 
H       9.36196006      19.47773360      14.63804398 
H       8.29649409      15.93895003      16.24779142 
H       9.67034309      16.81446425      15.48005143 
H       8.52838001      17.68790870      16.54294835 
H       8.02936498      19.27752170      18.97599829 
H       7.16418439      18.58073412      20.38126004 
H       8.55321463      17.70350372      19.63951096 
H       8.29035423      21.87279311      18.28313705 
H       7.46698982      23.20292358      19.15655332 
H       8.42007546      21.97578951      20.06450483 
H      12.25899414      28.64144118      12.09529346 
H      10.88893055      27.96222133      13.02692811 
H      11.70816415      26.96525449      11.78794161 
H       7.76798360      27.02173253      22.55093879 
H       8.65840598      28.04035647      21.37585117 
H       8.75671731      28.40204161      23.12900386 
H       7.33530167      16.28156577      24.79619338 
H       7.47095159      17.91604249      25.52047570 
H       7.92718075      16.46999184      26.47827011 
H       9.97599386      11.34537214      16.02260879 
H       9.87295024      11.22427293      17.80757311 
H      10.87500142      10.05723146      16.88708106 
H      13.49435921      17.35534770       8.09490185 
H      12.19046780      18.39431997       8.74792799 
H      12.45796396      16.76118979       9.42814050 
H      11.07742167      27.26841050      16.51517480 
H      10.44580859      27.04685763      18.18467109 
H      10.74971102      25.62321413      17.14832135 
H       9.05159823      23.59368844      23.53378211 
H       8.70351372      21.92816976      24.11885082 
H       9.02966753      22.21655031      22.38327390 
H       9.82647383      13.89682696      20.77247858 
H       9.68268340      15.67347481      20.62584030 
H       9.46942548      14.89284030      22.22830571 
H      12.45664065      14.71059882      12.86179845 
H      11.69991758      15.52303048      14.26852164 
H      12.10071090      13.77361307      14.35654583 
H      12.96931578      21.29079074      10.76916903 
H      12.58734617      22.98006963      11.24946716 
H      12.24220281      21.64026440      12.37721086 
H      15.48675386      25.72459866       9.29474979 
H      15.42422993      24.17803826      10.21917206 
H      16.91098381      24.63180244       9.32637361 
H      13.90209465      30.63206747      19.33872917 
H      12.24154889      30.74477532      20.01638861 
H      12.73165172      29.30735216      19.04231762 
H      10.85103763      22.49495046      28.09606645 
H       9.46073643      21.35955602      28.06531436 
H      10.17555477      21.96757208      26.52525094 
H      11.52331872      10.32921833      22.11595813 
H      11.63898476      12.11931285      22.29356056 
H      12.52902303      11.04919973      23.42009180 
H      15.19797699      13.10262825      10.42829675 
H      14.86490845      13.52662828      12.14667144 
H      16.22209225      12.43246754      11.74349119 
H      17.24895366      19.88983348       7.55757193 
H      16.29828704      21.22943393       8.27521965 
H      16.21350107      19.59433462       8.99738132 
H      14.93855242      31.00517407      14.86871442 
H      13.75685580      30.33551351      16.03791009 
H      14.45370996      29.27921677      14.77832295 
H      10.29283730      25.43574217      26.69346066 
H      10.84094936      26.27364601      25.21163213 
H      10.94538874      27.09943000      26.80188401 
H      10.70392508      13.01768226      25.66967166 
H      10.72185556      14.78161809      25.94530659 
H      10.99952832      13.65719156      27.31410093 
H      14.44882428      10.59275302      14.11447495 
H      14.06554631      10.80769157      15.84526962 
H      14.90160366       9.32284879      15.29095095 
H      21.39168272      16.79689798       8.24193747 
H      22.48961366      15.99799513       9.40977487 
H      22.39823254      17.78372249       9.35203410 
H      19.94030405      30.63765282      13.31447865 
H      21.44957833      29.68081462      13.19877450 
H      20.77928150      30.09243548      14.80545603 
H      16.84286675      30.21353512      25.99733067 
H      16.41862118      28.83848453      27.05912103 
H      15.15668431      30.01630705      26.56841893 
H      14.17845693      15.71989099      30.52265368 
H      15.62456006      16.73168432      30.83030475 
H      15.73542496      15.33569003      29.71849619 
H      18.10115717       7.87816021      18.85967447 
H      19.17102044       8.25350126      20.24201733 
H      19.48151184       9.00159958      18.64854504 
H      19.58983847       8.30999736      14.51280076 
H      18.30964370       9.36957888      15.19842016 
H      19.22966325       8.25985789      16.26559454 
H      21.36203143      13.30552126       9.95087620 
H      20.93805043      11.61179486      10.33728533 
H      22.28029460      12.41670956      11.21183970 
H      22.06021524      21.74851660       7.29610445 
H      20.68631679      21.00728997       8.18592394 
H      22.14767256      20.03899035       7.82063223 
H      21.42025677      26.83813687       8.96682105 
H      22.61295784      26.67132772      10.29856651 
H      21.24374199      27.82507947      10.45136962 
H      19.44797343      32.01823269      15.86238050 
H      18.91962585      33.05852224      17.21887781 
H      17.92957608      31.64093497      16.73592893 
H      17.26834174      32.93823895      22.41427218 
H      18.65344903      31.99428823      23.05388415 
H      17.04421590      31.88763936      23.84267275 
H      15.07037073      27.65719694      29.16914020 
H      14.46826432      26.60331957      30.48753162 
H      13.88286133      26.36560596      28.80199821 
H      14.65555129      19.60126542      31.46483367 
H      14.11730960      21.21800862      32.02176145 
H      15.85571408      20.92671328      31.66713320 
H      15.02830366      11.23526759      28.78757527 
H      14.24830395      12.62237426      27.95259653 
H      15.08445400      12.86531245      29.52229150 
H      17.22143653       8.32786610      22.96598934 
H      16.39175571       8.25562364      24.55275902 
H      18.05870235       8.91516965      24.44281471 
