646
Properties=species:S:1:pos:R:3 i=114 optimized=T E=-10243.3242985436 pbc="F F F" jobid=246_80-Ag-69_9-000001-PBE
Au      21.91117023      20.19395590      20.96383378 
Ag      24.76163841      20.20652064      21.88047290 
Au      20.47946968      22.69382462      20.50201983 
Ag      19.76254571      20.96406833      22.76427620 
Ag      20.04807035      18.15566512      21.89282831 
Ag      21.16417842      23.52153840      23.20875878 
Ag      20.41272692      21.78053815      25.47681732 
Ag      20.71137479      18.96012222      24.63971581 
Ag      20.97642883      16.14878490      23.73530913 
Ag      21.90021446      16.10681066      20.95978198 
Ag      22.74992533      16.13482678      18.13132549 
Au      23.00811979      18.89141003      17.24302733 
Au      23.26861055      21.74100755      16.42855920 
Ag      22.64562423      23.48960625      18.64787907 
Ag      21.89824424      25.17148089      20.91858588 
Ag      23.36495274      22.70078558      21.40319514 
Ag      22.62069040      20.99713228      23.69170091 
Ag      22.89857450      18.19617045      22.80652351 
Au      23.81424999      18.13965177      20.02251516 
Au      24.08578850      20.95339566      19.14171130 
Ag      20.93688721      14.04696545      19.04605241 
Ag      21.85624714      14.07481871      16.20879507 
Ag      22.11806739      16.84997109      15.31916483 
Ag      22.35998726      19.68514491      14.44630731 
Au      22.65747493      22.51552957      13.60761521 
Au      21.96817838      24.32577046      15.88013153 
Ag      21.20348969      26.06922601      18.16413077 
Au      20.51848511      27.75856142      20.44724722 
Au      25.37543910      22.48608228      14.56934298 
Ag      24.82642641      24.29169040      16.75423644 
Ag      24.05204200      25.96979570      19.04072419 
Au      23.25996190      27.65682300      21.33458668 
Ag      22.56462675      26.07073962      23.67045109 
Ag      21.76163656      24.33258845      25.88850850 
Ag      20.95210563      22.63710878      28.20288760 
Ag      21.34557356      19.75200539      27.40782545 
Ag      21.61706246      16.99450021      26.50305724 
Ag      21.90616798      14.14125358      25.57413112 
Ag      22.90283692      14.04525734      22.84948525 
Ag      23.74240750      14.10634376      20.01912746 
Ag      24.52599322      14.10807877      17.15945717 
Ag      24.89705960      16.85723181      16.23138946 
Au      25.16501039      19.62546693      15.42831608 
Au      23.59366530      19.00875697      25.61072950 
Au      23.74890500      16.22164667      24.67204325 
Ag      24.82163065      16.08934492      21.89181223 
Ag      25.58239970      16.13318128      19.03402114 
Ag      25.99566422      18.89947265      18.15627125 
Ag      26.14629868      21.69789781      17.25228944 
Ag      25.55335674      23.50276017      19.52891315 
Ag      24.72461901      25.20102392      21.77073221 
Ag      24.06703904      23.50154563      24.14541365 
Au      23.22350371      21.78884263      26.38329920 
Ag      26.20725722      22.76078571      22.31273996 
Ag      25.51219536      21.01941019      24.63067797 
Au      25.77453677      18.18161869      23.74996284 
Ag      26.68696956      18.14331936      20.91307878 
Au      26.91070271      20.99317185      19.99827429 
Ag      27.62768205      20.21565760      22.72998034 
Au      27.63486589      15.30579561      21.29164378 
Ag      28.40313592      17.32273262      18.63794253 
Ag      28.66919583      19.98543235      17.67859344 
Ag      28.36867496      23.25477684      18.77049696 
Ag      27.67104702      25.03872343      20.85255535 
Au      26.67190064      24.87949725      24.29032985 
Au      26.06721787      23.35168939      26.49408261 
Ag      25.69876742      20.15129093      27.45735984 
Au      25.87450723      17.48431153      26.69414748 
Au      26.81927393      15.37743559      23.90504792 
Ag      28.59265340      17.55241980      23.04448910 
Au      29.25335842      19.42682210      20.52821638 
Au      28.92935647      22.41700395      21.48380577 
Au      28.08172575      22.31745724      24.56217024 
Au      27.79062219      19.37872606      25.41511674 
Ag      25.62079645      13.32252704      22.18033252 
Ag      26.40912818      13.41242619      19.26749476 
Au      27.14261029      15.19305116      16.90768235 
Ag      27.53576648      17.96341829      15.93720608 
Ag      27.68182053      20.77930302      14.89573281 
Ag      27.64474370      23.74159531      15.91025822 
Ag      26.84486770      25.67490106      18.16968727 
Ag      25.96872769      27.52047396      20.47022958 
Ag      25.19688614      27.42437570      23.52907432 
Au      24.33895400      25.75497819      25.86198650 
Au      23.48216339      23.97597192      28.12919437 
Au      23.26844634      21.13030177      29.09203838 
Ag      23.63392441      18.27661599      28.37785299 
Ag      23.79506183      15.43839973      27.40120901 
Ag      24.71779095      13.61130239      25.10790805 
Ag      24.18793723      11.80464231      15.24580858 
Ag      23.99753776      14.85132346      14.33500484 
Au      24.17798032      17.64074550      13.48590701 
Ag      24.53324803      20.43323917      12.63993243 
Ag      25.38888731      23.34108360      11.67774617 
Ag      24.08915030      25.08291698      14.02599581 
Au      23.33372959      26.78895345      16.31163031 
Ag      22.64427308      28.53619521      18.58653233 
Ag      22.43109037      30.55928024      20.98855361 
Ag      21.19961070      28.59986341      23.19819072 
Ag      20.35476039      26.85969292      25.42265907 
Ag      19.60470301      25.18259313      27.69315621 
Au      19.42815654      23.70603857      30.53944742 
Au      19.20589401      20.51646390      29.17082553 
Ag      19.46829332      17.70488462      28.36498824 
Ag      19.83579253      14.90477191      27.47265592 
Ag      20.46164570      11.82431807      26.87547014 
Ag      21.08981039      11.96308966      23.73921292 
Au      21.88315345      12.07533348      20.94008850 
Ag      22.78791139      12.02817049      18.15665468 
Ag      29.59749767      14.40050798      23.43229463 
Ag      31.21815458      18.35842426      18.16336840 
Au      30.62395528      25.03678817      19.93189640 
Ag      28.67196756      24.91725082      26.58313749 
Au      28.03591100      18.44174420      28.73429815 
Ag      28.83109430      27.65846995      18.99856324 
Ag      30.24898664      18.59967631      15.01164147 
Au      28.04118667      11.70823798      21.78680679 
Au      25.32744644      16.65063588      30.17171681 
Ag      25.96760193      26.13810412      28.27505060 
Ag      26.47863736      26.56791952      15.29983423 
Ag      23.09765477      28.47999153      25.61164135 
Ag      21.52351168      18.90514602      30.48589882 
Au      24.05874747      10.95531553      23.39041516 
Ag      26.89767577      15.76158467      13.83769214 
S      29.86459198      22.85604886      26.20940583 
S      29.49786680      18.36834121      26.90089076 
S      30.83598683      16.43208615      23.06174887 
S      31.63247849      19.82797421      20.01382404 
S      30.90184718      23.85066021      21.93958793 
S      27.92965098      27.10794521      27.24585170 
S      30.54769405      26.30750976      17.95072709 
S      31.39288834      16.88871974      16.27598656 
S      28.86260341      12.15069452      23.96015277 
S      26.75556666      18.46202676      30.71176482 
S      27.77684080      26.56416669      22.87135672 
S      29.66770275      22.18596101      16.90569279 
S      29.07539722      14.99241350      19.32043171 
S      26.72253344      15.13284848      26.36387254 
S      26.27114883      22.23817813      28.68502021 
S      24.09878774      25.68872939      29.74143199 
S      27.39378899      29.42152710      19.72300052 
S      29.41697269      20.03010056      13.28420418 
S      27.27791725      11.09240989      19.65400517 
S      23.91311011      14.81773426      29.81294582 
S      22.64451205      20.87782366      31.42667620 
S      24.83780962      29.71321890      24.41489077 
S      28.10401276      25.30594205      14.02286106 
S      27.88257969      13.85408507      14.97863000 
S      24.50291411      11.20733313      25.69599448 
S      20.31377765      16.79040808      30.51257856 
S      21.22773323      28.36849832      27.18097146 
S      25.08308067      28.45220902      15.93547510 
S      26.16378344      17.24099998      12.07274217 
S      23.55639728      10.24853053      21.19393341 
S      20.21167915      10.12558086      25.18999551 
S      20.93544326      13.14167555      28.82557550 
S      18.39271801      21.68844371      31.18940089 
S      20.44392378      25.74883254      29.99719708 
S      21.01332562      31.07105983      22.86733303 
S      23.98553977      30.56019463      19.15434340 
S      24.50546739      25.58700580      11.62642329 
S      26.52623158      21.24560166      11.36790552 
S      24.09909518      12.72924211      13.02586047 
S      24.56320125      10.53232365      17.24508975 
C      31.48186416      23.22139287      25.43191947 
C      30.87886388      19.51877599      27.25568072 
C      31.81695762      16.79422875      24.56869248 
C      32.72074053      18.94311192      21.19553789 
C      32.45521420      22.90033225      21.73008412 
C      29.00100464      27.61901333      28.65497763 
C      32.04462213      27.38111573      18.00387021 
C      33.14206708      17.00146371      15.70173038 
C      30.36311902      11.09164279      24.08307170 
C      27.85923644      17.76464064      32.00795708 
C      29.43230900      26.93578942      23.58056399 
C      31.47473016      22.47728322      17.10742680 
C      30.84401254      14.83801024      19.79280756 
C      28.39127286      14.75539337      27.03276803 
C      28.02188345      22.15002878      29.22442259 
C      24.75915695      24.70369880      31.14154458 
C      28.07270018      30.05843740      21.30748020 
C      30.53644146      21.48552983      13.22594902 
C      28.78446430      11.14075224      18.60219148 
C      25.03843099      13.36560897      29.74257616 
C      24.04187984      20.29515761      32.45835542 
C      26.13010136      30.11759143      25.65596536 
C      29.72422154      26.14618409      14.22829849 
C      29.69690796      13.92714018      14.72032520 
C      26.13985443      10.43239646      25.99186172 
C      18.97301655      17.09781249      31.73523139 
C      20.35398104      29.97033340      26.94616163 
C      24.63083621      29.21584262      14.32540899 
C      25.59363458      16.09551069      10.75344762 
C      22.54384127       8.73909283      21.46254051 
C      21.47448790       8.85310778      25.60217164 
C      19.80341048      12.60737942      30.16777630 
C      19.20098946      21.16096582      32.74944408 
C      19.36878147      27.06073022      30.69280667 
C      22.03018559      32.10633834      23.99454423 
C      23.49681132      31.92840689      18.03358824 
C      25.93278558      26.70019299      11.30927581 
C      26.34208927      20.76756905       9.60617377 
C      25.73430148      12.35860732      12.26991989 
C      23.84829814       8.87019608      16.92812161 
Au      19.03339974      20.17216088      20.01926293 
Ag      16.18531286      20.19381352      19.11351226 
Ag      21.17707403      20.95161374      18.21954478 
Ag      20.91462407      18.14310408      19.07494778 
Au      19.76770114      23.47606680      17.74164414 
Ag      20.51865518      21.73677976      15.52559380 
Ag      20.19157157      18.93621243      16.32928902 
Ag      19.98312389      16.12996558      17.21334920 
Ag      19.07703931      16.12492279      19.99528171 
Ag      18.24070659      16.11724629      22.82117482 
Ag      17.89646029      18.88954758      23.71697793 
Au      17.66336377      21.71538847      24.56527919 
Ag      18.29605708      23.46620269      22.31009244 
Au      19.09670971      25.17118904      20.04461564 
Ag      17.57727094      22.68633178      19.56175542 
Ag      18.31346157      20.96454500      17.29321279 
Ag      18.03381208      18.15310856      18.14788064 
Au      17.16216049      18.13838632      20.95255841 
Ag      16.86981587      20.92708957      21.82758321 
Ag      20.07306852      14.01923471      21.92274218 
Ag      19.17914570      14.01816366      24.72106385 
Au      18.82406222      16.82182594      25.63690565 
Au      18.53814060      19.68457444      26.51341156 
Ag      18.22720854      22.57780238      27.31903539 
Ag      18.95378269      24.32855317      25.05947030 
Ag      19.75749740      26.06284886      22.77260439 
Ag      15.51294367      22.46212848      26.36098163 
Au      16.12958271      24.27589420      24.16168846 
Ag      16.93773865      25.96232047      21.91331003 
Ag      17.75316490      27.68450249      19.63004184 
Au      18.33051479      26.06969182      17.27335118 
Ag      19.10588311      24.31825014      15.06614521 
Au      19.87727359      22.50807945      12.85915780 
Ag      19.52824168      19.69195938      13.56732173 
Ag      19.31760567      16.91350819      14.48055334 
Ag      19.13699959      14.05839628      15.36354109 
Ag      18.14884682      14.01936778      18.13956166 
Au      17.28713542      14.06260277      20.92312298 
Ag      16.49044717      14.05192404      23.76039468 
Ag      16.05136698      16.80987137      24.67709838 
Ag      15.76721288      19.63368964      25.48764761 
Au      17.33021191      18.91739847      15.37161845 
Ag      17.15868928      16.14106044      16.27879146 
Ag      16.15153663      16.06495045      19.05124126 
Ag      15.39408331      16.08258869      21.89533414 
Au      14.95572751      18.86237031      22.76952499 
Ag      14.79569934      21.66198557      23.66438514 
Au      15.41019581      23.45510579      21.40501633 
Ag      16.21585237      25.20919820      19.20874547 
Ag      16.87685009      23.54498810      16.82318832 
Ag      17.70463634      21.75888692      14.60642423 
Au      14.70518501      22.71565393      18.66088670 
Au      15.47283913      20.99158661      16.34337778 
Au      15.19442435      18.12862169      17.19283652 
Ag      14.31036641      18.12630778      20.03842426 
Ag      13.94772129      20.94677595      20.92595000 
Ag      13.34922314      20.19952783      18.18886996 
Au      13.37173275      15.19421467      19.62860139 
Ag      12.59209100      17.25585654      22.25290943 
Ag      12.29648994      19.91880224      23.16953640 
Au      12.49571290      23.28979767      22.06189508 
Au      13.16935076      24.97474280      20.01634628 
Au      14.29677087      24.92363045      16.64994300 
Au      15.04900528      23.37858317      14.51606133 
Ag      15.34518023      20.01387592      13.56217068 
Ag      15.05393367      17.26793419      14.29907371 
Ag      14.20947405      15.31609124      16.94222809 
Au      12.50126131      17.52423750      17.89383895 
Ag      11.64620896      19.30487116      20.29745609 
Ag      11.88717856      22.34964072      19.31535300 
Ag      12.90099706      22.34936803      16.36338989 
Ag      13.21081022      19.35872197      15.45985734 
Ag      15.41600003      13.34203787      18.73862594 
Ag      14.61291637      13.33649213      21.64995488 
Au      13.84016947      15.09124360      23.99814156 
Ag      13.42785244      17.90811442      24.99129631 
Ag      13.20837382      20.78413867      25.90864699 
Ag      13.30467457      23.72412063      24.91477569 
Ag      14.11140329      25.68216374      22.69379681 
Au      15.03606183      27.48407765      20.47326814 
Ag      15.73435510      27.43468852      17.51554732 
Ag      16.55068863      25.82565948      15.04583054 
Ag      17.45767589      24.03509825      12.79289122 
Ag      17.57747318      21.01371814      11.82913734 
Ag      17.33390063      18.08604561      12.63636175 
Au      17.20595232      15.21058193      13.60709722 
Au      16.37049532      13.48541261      15.91373096 
Ag      16.88325925      11.73527967      25.66950681 
Ag      16.98225060      14.79171092      26.54484791 
Ag      16.70120930      17.60168102      27.39729538 
Ag      16.38308833      20.41744341      28.22754487 
Ag      15.56540550      23.29860580      29.26078687 
Ag      16.73201710      25.07727524      26.83862640 
Ag      17.58421678      26.81928525      24.62169753 
Au      18.36536332      28.47963821      22.34636206 
Ag      18.58072965      30.58220673      20.00752220 
Ag      19.76712690      28.56251689      17.68748353 
Au      20.61143007      26.83905830      15.43596680 
Ag      21.23884395      25.08118897      13.15832367 
Ag      21.59775974      23.39187352      10.49695683 
Ag      21.65975935      20.47654115      11.74305754 
Ag      21.45911843      17.68920362      12.60618893 
Ag      21.15974957      14.90258898      13.44947907 
Au      20.38419493      11.78955847      13.82203702 
Au      19.99969105      12.01218436      17.23875026 
Ag      19.17896366      11.98720066      20.01439869 
Ag      18.24309685      11.97935496      22.78076406 
Ag      11.28700912      14.55695123      17.53696168 
Ag       9.77152040      18.38846327      22.74898118 
Ag      10.24434280      24.80052398      20.69697640 
Ag      12.45923871      24.88846953      14.26759354 
Au      13.11080805      18.50162839      12.16164073 
Ag      11.96707885      27.48661440      21.77083204 
Ag      10.75176109      18.66814767      25.92839805 
Ag      12.79845255      12.03849193      19.23977436 
Au      15.66188251      16.58858042      10.79294345 
Au      15.03391104      26.55321354      12.63797034 
Ag      14.46145556      26.61977867      25.55986781 
Ag      17.70031968      28.59438564      15.43808065 
Ag      19.36384923      18.89644006      10.47991720 
Ag      17.11650288      10.98424312      17.80970435 
Ag      14.09554899      15.76912340      27.07454059 
S      11.34402840      22.75888427      14.45155177 
S      11.53076502      18.36282609      13.88516211 
S      10.20295236      16.67161995      17.95485070 
S       9.27021655      19.83391391      20.90054118 
S       9.83344386      23.61216118      18.64043625 
S      13.07560809      27.18840293      13.80169022 
S      10.13440828      26.19703337      22.66575317 
S       9.65979080      16.93156295      24.65999728 
S      11.83795654      12.27433221      17.02982125 
S      14.47807142      18.55628004      10.23037527 
S      13.03490208      26.48502188      18.05201989 
S      11.24683377      22.13892571      23.83117603 
S      11.80843189      14.98946887      21.58451621 
S      14.02395599      14.96960468      14.47721510 
S      15.12938519      22.22022039      12.32430564 
S      16.96948486      26.07220833      11.40649363 
S      13.49775827      29.25468604      21.19772565 
S      11.51162551      20.18144930      27.62197014 
S      13.53251343      11.12813405      21.34189002 
S      16.84649572      14.61691538      11.23532582 
S      18.46268164      20.93284552       9.50321601 
S      15.99111940      29.76768830      16.71195734 
S      12.75706766      25.32962217      26.71413901 
S      13.09258333      13.83862322      25.97145206 
S      16.37686184      11.08099623      15.48983792 
S      20.50545836      16.75918241      10.50361673 
S      19.48038799      28.25990718      13.81431198 
S      15.87559930      28.55158463      25.17475439 
S      14.78024938      17.19852856      28.90851638 
S      17.69244550       9.98653149      19.94802767 
S      20.68926850      10.26745208      15.59138804 
S      20.07200783      13.18135199      11.96378859 
S      22.74969112      21.42052691       9.70880504 
S      20.43388475      25.47006267      10.83289066 
S      19.96026257      31.01307050      18.08750731 
S      17.00677306      30.46067723      21.83445440 
S      16.35588174      25.57112195      29.25014072 
S      14.47989311      21.18477573      29.60835935 
S      16.93819155      12.69380896      27.88167453 
S      16.41545833      10.52232080      23.65475918 
C       9.62198794      23.07291274      15.00465931 
C      10.19459458      19.53151609      13.42942271 
C       9.28108421      17.20224270      16.46325138 
C       8.05479564      18.92639550      19.86466239 
C       8.29190480      22.64021801      18.83907593 
C      11.96025819      27.81208949      12.47704651 
C       8.66487691      27.29483286      22.48556460 
C       7.91540770      17.00565701      25.25618193 
C      10.26565469      11.31691857      17.12417557 
C      13.36965895      18.02813020       8.85876061 
C      11.35358449      26.65279062      17.33365336 
C       9.44770536      22.44642924      23.59979352 
C      10.02397637      14.94987160      21.15339195 
C      12.26327383      14.78869386      13.98171977 
C      13.57984623      22.40215623      11.35006294 
C      16.36551968      25.28075787       9.86130106 
C      12.89687082      29.95128105      19.60899101 
C      10.37163726      21.62297101      27.57607189 
C      12.07628503      11.27613914      22.45320309 
C      15.55460592      13.32230675      11.38488997 
C      17.18000179      20.40564973       8.29906086 
C      14.65356152      30.22363898      15.53893393 
C      11.14402858      26.14468441      26.38459292 
C      11.27849516      13.92519087      26.22429479 
C      14.67217897      10.41353748      15.40512634 
C      21.83885469      16.99151957       9.25563960 
C      20.41792497      29.84028192      13.84401156 
C      16.24037928      29.14208824      26.87859877 
C      15.36410706      15.99537240      30.17320370 
C      18.81280316       8.60373600      19.47853798 
C      19.44021995       8.94514271      15.34344715 
C      21.26651844      12.61368970      10.69346305 
C      21.94196791      20.94584735       8.12750849 
C      21.43004844      26.79738815      10.05008349 
C      18.95494649      32.06190230      16.96059977 
C      17.43917150      31.76107880      23.05067746 
C      14.86501426      26.60391435      29.55704612 
C      14.82273697      20.69168801      31.34342328 
C      15.30422896      12.27492603      28.61591051 
C      17.07647034       8.82231518      23.85567538 
H      31.93090941      22.27230349      25.11397577 
H      32.12698691      23.69413836      26.18183113 
H      31.37171977      23.87977187      24.56440151 
H      31.57022826      19.45758292      26.40583696 
H      31.38765374      19.18649574      28.16720821 
H      30.52599691      20.55055321      27.35993039 
H      32.30415891      17.76723908      24.42807943 
H      32.58482900      16.02165759      24.68814793 
H      31.18343441      16.83498538      25.46074495 
H      33.70204963      18.80178442      20.72864186 
H      32.29377342      17.97683476      21.48702554 
H      32.82730050      19.57322841      22.08719591 
H      33.28867337      23.60695723      21.64879269 
H      32.40850651      22.25119301      20.84982336 
H      32.58127195      22.28550804      22.62983100 
H      29.98762896      27.88950741      28.26124972 
H      29.11151403      26.81944067      29.39278688 
H      28.54809142      28.49536178      29.13319363 
H      31.94086377      28.13268674      17.21221508 
H      32.92758405      26.76193223      17.80912854 
H      32.14838334      27.87935388      18.97172133 
H      33.20068949      16.58550467      14.68919075 
H      33.76685713      16.40522855      16.37674184 
H      33.50131964      18.03433418      15.69144670 
H      30.05174529      10.04080148      24.09380222 
H      30.86656891      11.33433570      25.02636528 
H      31.04780476      11.26491106      23.24812421 
H      28.64582590      18.50068365      32.21052851 
H      28.30770981      16.81994121      31.68885597 
H      27.25861685      17.60681527      32.91144485 
H      29.93879711      27.63357263      22.90279128 
H      30.01880518      26.01463770      23.66374121 
H      29.29229402      27.39183571      24.56756709 
H      32.00440324      21.95934588      16.29910070 
H      31.80677742      22.08900741      18.07635400 
H      31.65846630      23.55627312      17.05158164 
H      31.42644223      14.89835484      18.86505716 
H      30.99652573      13.86501933      20.27510993 
H      31.14387029      15.63693425      20.47859299 
H      28.70053464      13.77834887      26.64349708 
H      28.31778161      14.72797684      28.12638900 
H      29.10320932      15.53072650      26.73023310 
H      28.35854228      23.15777593      29.49703857 
H      28.66589464      21.75083888      28.43561888 
H      28.05985851      21.49120210      30.10058714 
H      23.90730278      24.25507567      31.66729573 
H      25.29682093      25.38217927      31.81403730 
H      25.42760720      23.91135208      30.78594225 
H      28.99592223      30.61403559      21.11041416 
H      28.26247515      29.24981079      22.02102413 
H      27.31839082      30.73249101      21.73210641 
H      31.51565285      21.17740660      12.84361982 
H      30.64249914      21.94839415      14.21319343 
H      30.08288145      22.21145429      12.53963777 
H      28.44744882      10.98586051      17.56947028 
H      29.46035442      10.33062102      18.89639703 
H      29.29219277      12.10912029      18.67512348 
H      24.42084078      12.51531528      29.42625226 
H      25.44862050      13.17501951      30.74026145 
H      25.84863846      13.51424547      29.02102129 
H      24.75729886      21.11823840      32.56975117 
H      24.54683790      19.43564747      32.00783911 
H      23.64074840      20.01934508      33.44092276 
H      26.98222590      30.55400825      25.12091605 
H      26.46749683      29.22873635      26.20011863 
H      25.72921671      30.85391759      26.36167757 
H      29.69486829      27.12016219      13.72716843 
H      30.48633834      25.51635974      13.75330118 
H      29.97555223      26.27853357      15.28614180 
H      29.90919482      13.70999634      13.66723188 
H      30.15410908      13.15683086      15.35302699 
H      30.10580523      14.90599632      14.99302570 
H      26.06079735       9.35235419      25.82623337 
H      26.39708092      10.62346207      27.04099944 
H      26.91140970      10.86033848      25.34200025 
H      18.29199212      16.23863152      31.71221978 
H      18.41243518      18.00888923      31.50085791 
H      19.41460920      17.18169898      32.73491387 
H      19.40271544      29.92144330      27.48934790 
H      20.15774915      30.17486948      25.88754345 
H      20.97169632      30.77147459      27.36816932 
H      25.50435469      29.76152879      13.94922759 
H      23.80706973      29.91796077      14.50067518 
H      24.32081773      28.46050857      13.59512904 
H      25.06478308      16.68879819       9.99804412 
H      24.92166613      15.32648812      11.15062946 
H      26.47294393      15.62509321      10.29790382 
H      22.14210385       8.43877229      20.48702000 
H      21.71823192       8.93049684      22.15649060 
H      23.19185557       7.94663285      21.85419057 
H      21.55892865       8.16490913      24.75286090 
H      21.13340445       8.29992284      26.48458712 
H      22.44973270       9.31059273      25.79939386 
H      20.17345701      11.66280246      30.58230511 
H      18.78025202      12.47963513      29.79776038 
H      19.83062758      13.38539156      30.94037039 
H      18.84507299      20.15169732      32.98777419 
H      18.89086569      21.85605372      33.53838567 
H      20.29145708      21.15977610      32.64950968 
H      19.69343709      28.00166082      30.23139962 
H      19.52286208      27.10811595      31.77666415 
H      18.31301755      26.87392523      30.46685397 
H      22.18186924      33.08371810      23.52279346 
H      22.99714912      31.63442575      24.20164871 
H      21.47639318      32.23733745      24.93171979 
H      24.00571128      31.76757813      17.07540796 
H      23.83477064      32.87530413      18.47022947 
H      22.41196930      31.95550524      17.88020839 
H      26.22916766      26.58502272      10.26036043 
H      26.77657743      26.45751859      11.96501459 
H      25.61296712      27.73430614      11.48323416 
H      27.02720853      21.37456430       9.00332096 
H      25.31218927      20.91126207       9.26040618 
H      26.62074470      19.70995698       9.52382392 
H      25.84137669      12.96256053      11.36124410 
H      25.75393283      11.29581932      12.00279995 
H      26.55438439      12.58616406      12.95916523 
H      24.51802340       8.32142185      16.25611381 
H      22.85119969       8.94153200      16.47977223 
H      23.79029185       8.34616150      17.88970491 
H       9.10794809      23.67895215      14.25052733 
H       9.60207313      23.57805117      15.97691996 
H       9.11646831      22.10314598      15.09355907 
H       9.72404213      19.19039685      12.50100585 
H      10.57766216      20.55227965      13.32033222 
H       9.45732475      19.50498858      14.24165889 
H       8.36334252      16.60567570      16.40056772 
H       9.87638648      17.07134287      15.55411542 
H       9.02279982      18.26167835      16.58059218 
H       7.83718310      19.54627828      18.98597599 
H       7.13320400      18.77776176      20.43797591 
H       8.45623198      17.96302734      19.53331208 
H       8.17122877      22.01007594      17.94917280 
H       7.44367679      23.33022461      18.91071396 
H       8.33826415      22.00481059      19.73013839 
H      12.37152250      28.74878546      12.08355708 
H      10.98046221      28.00444652      12.93004878 
H      11.85182011      27.08686103      11.66579106 
H       7.76601447      26.70524186      22.70062694 
H       8.59154792      27.71232231      21.47746274 
H       8.74735236      28.11036356      23.21343691 
H       7.29907520      16.38586349      24.59463932 
H       7.52912483      18.02886032      25.25894158 
H       7.87893418      16.59904936      26.27349134 
H       9.67506317      11.53179365      16.22602443 
H       9.68258454      11.57548834      18.01245206 
H      10.51293034      10.24919524      17.14981119 
H      13.99170516      17.85179722       7.97339847 
H      12.66625394      18.84509171       8.66037711 
H      12.82068196      17.11835753       9.11669821 
H      11.45455103      27.17569786      16.37506880 
H      10.75094970      27.24786833      18.03090953 
H      10.88632895      25.67324813      17.18988122 
H       9.27495094      23.52800272      23.64337727 
H       8.91486027      21.94003275      24.41365606 
H       9.12026525      22.04139440      22.63600201 
H       9.79675451      13.98575738      20.68241309 
H       9.75941375      15.76346733      20.47049633 
H       9.46391727      15.05197660      22.09145129 
H      12.20747253      14.83691467      12.88761253 
H      11.64753029      15.58813424      14.40582352 
H      11.91006381      13.81325482      14.33668426 
H      13.64463328      21.71932179      10.49519715 
H      13.50322230      23.44029213      11.00618196 
H      12.71457245      22.15016111      11.97267735 
H      15.82539209      26.01904180       9.25884987 
H      15.72415898      24.41816233      10.06972486 
H      17.26033355      24.94401513       9.32239833 
H      13.69811836      30.57811456      19.19820421 
H      12.00980881      30.56287104      19.80959367 
H      12.65804209      29.15999791      18.88999892 
H      10.80887954      22.40113234      28.21384312 
H       9.39511945      21.32600500      27.97393404 
H      10.26149420      22.01924540      26.56103949 
H      11.33178361      10.52333068      22.17130489 
H      11.63675222      12.27960741      22.40466200 
H      12.42464155      11.08644750      23.47599051 
H      15.09296519      13.16582966      10.40387267 
H      14.80216938      13.60264751      12.13142887 
H      16.06685560      12.40712595      11.70742611 
H      17.66066675      19.89062478       7.45976941 
H      16.67671157      21.30810598       7.93129478 
H      16.44066853      19.74619309       8.76572677 
H      15.02044806      31.00903480      14.86852652 
H      13.81273482      30.61127225      16.12676231 
H      14.31579422      29.36226384      14.95261335 
H      10.35940507      25.51759686      26.82493114 
H      10.95592896      26.25503837      25.31075311 
H      11.13626789      27.12859328      26.86679501 
H      10.81976201      13.13554124      25.61702681 
H      10.87400913      14.89648831      25.91927062 
H      11.06503239      13.74420328      27.28398654 
H      14.26905454      10.64394218      14.41186287 
H      14.02025877      10.85483871      16.16596014 
H      14.72243113       9.32688677      15.54019495 
H      21.39015460      17.01670246       8.25608002 
H      22.52050843      16.13551653       9.32688083 
H      22.39946261      17.91599814       9.43193725 
H      19.81195152      30.60535846      13.34415606 
H      21.35209724      29.69315257      13.28915079 
H      20.64407455      30.15482939      14.86869341 
H      16.97956694      29.94865242      26.80074604 
H      16.64472437      28.34201635      27.50860880 
H      15.32115618      29.53691690      27.32625675 
H      14.49669919      15.46569586      30.58362200 
H      15.85512408      16.56097450      30.97397760 
H      16.07352700      15.27409951      29.75216554 
H      18.22448680       7.81623592      18.99345781 
H      19.26125058       8.20662105      20.39716099 
H      19.60889569       8.93921736      18.80548515 
H      19.74670531       8.34795308      14.47690783 
H      18.44301916       9.36721510      15.18066285 
H      19.43631266       8.31508661      16.24081558 
H      21.27180819      13.38020249       9.90857887 
H      20.91822467      11.66251519      10.27572847 
H      22.27145812      12.49855390      11.11499104 
H      22.23427355      21.67335454       7.36161593 
H      20.85130456      20.92842473       8.23114235 
H      22.30276234      19.95165352       7.83872230 
H      21.30392111      26.73843851       8.96296957 
H      22.49080687      26.70183526      10.30839540 
H      21.04049686      27.75649460      10.41221427 
H      19.47787495      32.13587993      15.99984741 
H      18.87327318      33.06017034      17.40544833 
H      17.95728348      31.63668362      16.80555170 
H      17.02390195      32.71042582      22.69206545 
H      18.52452323      31.84782203      23.17585202 
H      16.96635377      31.48655280      24.00158378 
H      15.13778227      27.65453943      29.40383297 
H      14.55677880      26.45752845      30.59839835 
H      14.04603684      26.33410042      28.88106480 
H      14.64380224      19.61228026      31.41799789 
H      14.12611253      21.22500557      32.00057818 
H      15.85411293      20.92198801      31.63182038 
H      15.30083853      11.20622853      28.85842732 
H      14.48592082      12.50486856      27.92526133 
H      15.18110377      12.85665794      29.53700756 
H      17.12535896       8.37661727      22.85471024 
H      16.38247685       8.24894784      24.48068977 
H      18.07234725       8.83120050      24.31238767 
