646
Properties=species:S:1:pos:R:3 i=86 optimized=T E=-10428.31625959 pbc="F F F" jobid=246_80-Ag-89_8-000003-PBE
Ag      21.85666414      20.17427252      20.93954525 
Ag      24.68043259      20.18824820      21.85250253 
Ag      20.44106969      22.70629836      20.49341130 
Ag      19.71654002      20.95716822      22.77336001 
Ag      20.00555382      18.13768580      21.90830854 
Ag      21.13264364      23.48889626      23.19200198 
Ag      20.36692810      21.72389076      25.48183645 
Ag      20.67911679      18.93858168      24.64839834 
Ag      20.93198958      16.12450598      23.75528244 
Ag      21.87751305      16.10057286      20.97665439 
Ag      22.76048622      16.11926535      18.13838335 
Ag      23.07128898      18.89462769      17.25155777 
Ag      23.29655759      21.71178546      16.39836841 
Au      22.60471421      23.47903081      18.64118665 
Ag      21.82655887      25.20053497      20.91570144 
Ag      23.30793939      22.69403244      21.38780246 
Ag      22.57329288      20.97406063      23.65460119 
Ag      22.84956645      18.16124835      22.81273363 
Ag      23.76108750      18.14588438      20.01502613 
Ag      24.04167914      20.94090683      19.12831014 
Ag      20.91678571      14.00219584      19.04780656 
Ag      21.84295668      14.03297691      16.22615328 
Ag      22.13515841      16.84446434      15.32957370 
Ag      22.35992714      19.67241159      14.45442695 
Au      22.62784128      22.50161112      13.65532160 
Au      21.94918961      24.32717465      15.88073574 
Ag      21.17367092      26.06043398      18.17608387 
Ag      20.44902680      27.77298438      20.47507674 
Ag      25.40162049      22.46534371      14.55282347 
Ag      24.78787165      24.25295157      16.76273488 
Ag      23.99060894      25.95855242      19.06096619 
Ag      23.20480308      27.69164956      21.33187710 
Ag      22.54563570      26.07191997      23.64436990 
Au      21.78312191      24.28050305      25.87316872 
Ag      21.00402717      22.54028778      28.16336786 
Ag      21.33628735      19.74256352      27.43193301 
Ag      21.58655561      16.93471704      26.50759896 
Ag      21.84673177      14.09782164      25.59884613 
Ag      22.81848399      14.00810248      22.87302678 
Ag      23.68050217      14.07483783      20.03473523 
Ag      24.55762842      14.08437106      17.18379206 
Ag      24.94484212      16.80589944      16.25960287 
Ag      25.16459461      19.62400691      15.43111688 
Ag      23.54401577      18.95324715      25.55953428 
Ag      23.71330849      16.15919159      24.66745761 
Ag      24.73997572      16.07547015      21.90125480 
Ag      25.53103360      16.09229514      19.06207667 
Ag      25.94088108      18.87184777      18.15644007 
Ag      26.10458351      21.66519245      17.26061179 
Ag      25.49224483      23.47486169      19.53173976 
Ag      24.65420691      25.19405287      21.77622476 
Ag      24.04415877      23.52839554      24.11449326 
Ag      23.18701683      21.77952187      26.33706157 
Ag      26.15946135      22.70411500      22.29578012 
Ag      25.43297170      20.98612961      24.60451710 
Ag      25.69231550      18.15391006      23.74002145 
Ag      26.59197447      18.13092473      20.92305701 
Ag      26.87328232      20.93402558      20.02103518 
Ag      27.52537479      20.17984766      22.74692594 
Ag      27.49467264      15.29823946      21.25651789 
Ag      28.34492914      17.37278821      18.71986081 
Ag      28.60883202      20.01197700      17.75795508 
Ag      28.28430738      23.19543356      18.85836014 
Ag      27.56697115      24.94354804      20.95137842 
Ag      26.64369197      24.87352089      24.25075587 
Au      25.87470511      23.33799479      26.41771096 
Ag      25.59346560      20.01478312      27.33147841 
Ag      25.79137524      17.31839998      26.59721397 
Ag      26.68126615      15.42337960      23.94629889 
Ag      28.48287095      17.51313662      23.00215528 
Ag      29.23631929      19.39866369      20.61295951 
Ag      28.92754165      22.36136999      21.58179106 
Ag      27.98974004      22.28947806      24.57561238 
Ag      27.69298420      19.30128604      25.44702864 
Ag      25.52504319      13.35895798      22.22181656 
Ag      26.32448833      13.31499027      19.33701378 
Ag      27.28652649      15.16039345      17.01939515 
Ag      27.53615857      17.96940429      15.96271443 
Ag      27.71329604      20.80578401      15.00117467 
Ag      27.58523153      23.75282007      16.01127090 
Ag      26.80584157      25.64507621      18.21842306 
Ag      25.95709176      27.43315949      20.45765471 
Ag      25.18661175      27.39031305      23.48381094 
Ag      24.32757218      25.76462060      25.85077468 
Ag      23.47070868      24.04520442      28.14036496 
Ag      23.37297229      21.06892713      29.08298543 
Au      23.54523116      18.16851855      28.29900737 
Ag      23.72342175      15.29757183      27.44378389 
Ag      24.68049600      13.52225749      25.12711538 
Ag      24.12691209      11.73195361      15.33925633 
Ag      23.99454232      14.81277559      14.39794171 
Ag      24.20473259      17.61298353      13.51370921 
Au      24.46356614      20.42949803      12.72591993 
Ag      25.34385165      23.20424583      11.58353051 
Ag      24.10791011      25.02657584      14.04094977 
Ag      23.32457948      26.76900535      16.30684975 
Ag      22.60654756      28.49369280      18.58824501 
Ag      22.31950033      30.56461706      20.98407271 
Ag      21.11740843      28.55903135      23.21617442 
Ag      20.35674110      26.81299397      25.44522724 
Ag      19.66120222      25.09371129      27.72399873 
Ag      19.27376318      23.50948894      30.43555491 
Ag      19.21167700      20.49314979      29.24656376 
Ag      19.42270255      17.67770268      28.37793271 
Au      19.72059551      14.90542099      27.41399968 
Ag      20.38674838      11.84305244      27.03849212 
Ag      20.95344863      11.96989689      23.78336103 
Ag      21.81983424      12.01407573      20.95887694 
Ag      22.75569857      12.01226268      18.17714112 
Ag      29.51758357      14.48212043      23.30459740 
Ag      31.13920894      18.48307173      18.17757580 
Ag      30.46719858      24.85160180      20.20380104 
Au      28.58839937      24.81021240      26.69003467 
Ag      27.86238697      18.34870443      28.51936976 
Ag      28.86348075      27.57187372      19.04793323 
Ag      30.17556782      18.77346991      14.95565598 
Ag      28.03279390      11.92583949      21.69042351 
Ag      25.35910516      16.53809296      29.91766140 
Ag      25.89150786      26.09417351      28.32524398 
Ag      26.41187476      26.58328707      15.35921765 
Ag      23.11189446      28.53994216      25.56549696 
Ag      21.58713623      18.92995215      30.48324204 
Ag      23.86680747      11.06622520      23.32068669 
Ag      26.88243806      15.72201161      13.98102884 
S      29.61244601      22.70420868      26.46149559 
S      29.48629089      18.14222712      26.75555979 
S      30.75280498      16.47362137      22.76014885 
S      31.61384989      19.94110598      20.03133778 
S      30.87712945      23.76070848      22.30664241 
S      27.76559920      26.98838897      27.07853466 
S      30.59828001      26.14792118      18.17661280 
S      31.20629984      17.02637315      16.25869614 
S      28.79095394      12.27692822      23.95042167 
S      26.67070189      18.44824532      30.60803914 
S      27.75827152      26.61217004      22.85836957 
S      29.66238443      22.20747978      17.01505837 
S      28.96304080      14.98882003      19.19929428 
S      26.66800656      14.94556171      26.40358105 
S      25.92088703      22.12699443      28.62882848 
S      24.09444722      25.72311701      29.86617537 
S      27.34949619      29.32735972      19.62994951 
S      29.42762781      20.29601594      13.26462904 
S      27.37985181      11.07049429      19.55292733 
S      24.12825964      14.48073144      29.76154496 
S      22.56805801      20.95839652      31.42443499 
S      24.83565792      29.70308475      24.31063929 
S      28.09867888      25.31673129      14.14781236 
S      27.85928373      13.76666751      15.04573451 
S      24.41667136      11.11796763      25.68411788 
S      20.24304324      16.90785108      30.58077813 
S      21.33094809      28.28872234      27.19047267 
S      25.02387070      28.51179766      15.87239786 
S      26.19314841      17.09642770      12.11209541 
S      23.31190709      10.04366913      21.19339917 
S      20.18695988      10.16435572      25.33190993 
S      20.73826332      13.27901628      28.94534690 
S      18.23137232      21.51698066      31.29095035 
S      20.43415117      25.57094422      30.03779348 
S      20.92073641      31.02551813      22.88472789 
S      23.93623247      30.50099944      19.21423686 
S      24.56941326      25.48037751      11.63645729 
S      26.38974437      21.03911019      11.33574805 
S      24.06480490      12.66281698      13.12071401 
S      24.54543075      10.49514109      17.35331958 
C      31.31009097      23.03857599      25.85530758 
C      30.84972294      19.29825305      27.17731031 
C      31.80906969      16.82853945      24.22019324 
C      32.78885806      19.03417685      21.11179478 
C      32.45915872      22.85072910      22.10279696 
C      28.87010778      27.69743204      28.37154792 
C      32.12777198      27.16946745      18.31847133 
C      32.95868641      17.00823855      15.68242459 
C      30.31586775      11.24711520      24.07878394 
C      27.83342975      17.78497382      31.87641946 
C      29.40551157      27.06303246      23.54768463 
C      31.46440569      22.50987994      17.24124277 
C      30.78047476      14.73940489      19.35987721 
C      28.33031962      14.49902482      27.05809190 
C      27.50923030      22.14042190      29.55715151 
C      24.76168749      24.66957788      31.21472440 
C      27.97236626      30.07232340      21.18989142 
C      30.53669927      21.75834185      13.34669010 
C      28.84299315      11.22588798      18.45254906 
C      25.36145640      13.14255581      29.51216005 
C      23.94696858      20.42344817      32.51390957 
C      26.16914651      30.14123792      25.49588428 
C      29.71368082      26.14494235      14.43111920 
C      29.67032285      13.82365160      14.74317891 
C      26.06734079      10.33501058      25.87591090 
C      18.92621662      17.33010792      31.79466442 
C      20.42699674      29.88652331      27.05852748 
C      24.62546608      29.17311819      14.20076261 
C      25.65126050      15.85500294      10.86653192 
C      22.21735683       8.64737751      21.68501678 
C      21.43809793       8.87822716      25.73238332 
C      19.48979640      12.87801931      30.22434107 
C      19.12547124      21.13965376      32.85255666 
C      19.40137027      26.92523943      30.72008726 
C      21.94992897      32.06343035      24.00065010 
C      23.53889994      31.86124221      18.04820038 
C      26.03555630      26.53809032      11.30731467 
C      26.06700912      20.41840418       9.64320521 
C      25.69403356      12.22863517      12.38594489 
C      23.83574278       8.81751780      17.13222903 
Ag      19.06087025      20.18022931      20.05603292 
Au      16.22960148      20.18487522      19.16011751 
Au      21.18089408      20.94592285      18.21007945 
Ag      20.91418655      18.13642886      19.08712810 
Ag      19.75344685      23.49956399      17.76362052 
Ag      20.50526584      21.73490665      15.51135129 
Ag      20.23355435      18.94230171      16.32035395 
Au      20.01390123      16.13268043      17.22063305 
Ag      19.07870543      16.09942095      20.01681894 
Ag      18.18768294      16.12664576      22.84224276 
Ag      17.85558191      18.89720952      23.74082607 
Ag      17.61338655      21.70895128      24.58428498 
Ag      18.29782367      23.45616263      22.33464617 
Ag      19.04859623      25.19694528      20.03913582 
Ag      17.59001391      22.70092004      19.58767857 
Ag      18.32856542      20.97210613      17.30395464 
Au      18.05442214      18.14594141      18.15343845 
Ag      17.17384465      18.14709549      20.97740436 
Ag      16.85537626      20.94372814      21.87392040 
Ag      20.03031948      14.00447366      21.92403191 
Ag      19.09124030      14.01776240      24.72679861 
Ag      18.77072253      16.85590447      25.63403914 
Au      18.52527664      19.67966975      26.54846801 
Ag      18.22632248      22.52866826      27.36597533 
Ag      18.94500289      24.28562024      25.08166123 
Ag      19.72141379      26.05783007      22.77066415 
Au      15.50295300      22.46177002      26.37450213 
Ag      16.11988810      24.26164474      24.20136520 
Au      16.89839518      25.93848207      21.90503023 
Ag      17.68173965      27.69406073      19.62544413 
Ag      18.32781284      26.07793054      17.31840417 
Ag      19.09742199      24.29142666      15.08582801 
Ag      19.87436879      22.52056693      12.80189365 
Ag      19.54414983      19.73446617      13.54335521 
Ag      19.31383090      16.94146561      14.46360796 
Ag      19.08103016      14.12325327      15.36175443 
Au      18.09810897      13.99123333      18.09731534 
Au      17.26253351      14.05896852      20.92379072 
Au      16.37536297      14.09240810      23.77887852 
Au      15.95018249      16.82600610      24.72470400 
Ag      15.74446747      19.62158723      25.54635362 
Ag      17.33622710      18.94659502      15.38307953 
Ag      17.19214476      16.14811180      16.29485194 
Ag      16.15728144      16.05334029      19.06898341 
Au      15.35969741      16.10463821      21.88708398 
Ag      14.92318653      18.86734260      22.82580102 
Ag      14.77133932      21.66030145      23.69474011 
Ag      15.36736359      23.47048567      21.43884586 
Ag      16.21233289      25.18754857      19.18118722 
Ag      16.85916096      23.52247004      16.84349356 
Ag      17.70523127      21.78867467      14.63014899 
Ag      14.73829836      22.69443463      18.69307391 
Ag      15.48649980      20.97261078      16.39334309 
Ag      15.21281367      18.13731620      17.25861548 
Ag      14.30422457      18.11104864      20.09636624 
Ag      14.00188846      20.93625300      20.97593216 
Ag      13.38027693      20.16348216      18.23311277 
Ag      13.40561574      15.22670880      19.70291903 
Ag      12.48041120      17.36462661      22.27021881 
Ag      12.23978842      19.99596845      23.22579063 
Ag      12.55740144      23.21885647      22.10583808 
Ag      13.26231812      24.96222357      20.01973180 
Ag      14.27674514      24.85202993      16.76371746 
Ag      15.03618060      23.31255121      14.54565279 
Ag      15.30476813      20.03284884      13.65601529 
Ag      15.13743994      17.31762576      14.38485648 
Ag      14.22893265      15.39804015      16.99970915 
Au      12.47251416      17.49063877      18.00426696 
Ag      11.66806939      19.38483231      20.34516944 
Ag      11.98028811      22.34335844      19.37860948 
Ag      12.94386567      22.27665420      16.41690406 
Ag      13.20825353      19.25670515      15.53878179 
Ag      15.39860338      13.32777696      18.72967907 
Ag      14.62422945      13.27528530      21.62970919 
Ag      13.61554471      15.14497843      23.93898592 
Ag      13.35887558      17.97227094      25.02879572 
Ag      13.19758689      20.79549151      26.00282324 
Ag      13.29174914      23.76954850      24.96134979 
Ag      14.09403442      25.65220558      22.75532406 
Ag      14.93230117      27.44237207      20.51962730 
Ag      15.68885133      27.41092394      17.48721359 
Ag      16.55294227      25.75584815      15.10910458 
Ag      17.40916146      24.02528177      12.81703416 
Ag      17.48941744      21.07484898      11.88239368 
Ag      17.34219698      18.16244998      12.64179755 
Ag      17.18449873      15.30636187      13.52109870 
Ag      16.22296637      13.51204487      15.85070845 
Ag      16.71571827      11.68419121      25.55623156 
Ag      16.88419423      14.78507002      26.55401782 
Ag      16.68290068      17.60931666      27.45941147 
Ag      16.38484727      20.41691943      28.28598059 
Ag      15.52492140      23.24841184      29.30490227 
Ag      16.79277172      25.03915455      26.90480998 
Ag      17.59569245      26.75356483      24.64698096 
Ag      18.26868436      28.48220910      22.36336574 
Ag      18.60492893      30.55667251      19.98955357 
Ag      19.76480610      28.55557578      17.74348347 
Ag      20.53137047      26.82010289      15.50355092 
Ag      21.25081566      25.05553682      13.23017811 
Ag      21.55368987      23.52453778      10.48891821 
Ag      21.69892880      20.50081360      11.70916953 
Ag      21.45339978      17.70040139      12.62864683 
Ag      21.17594309      14.90722631      13.47206072 
Ag      20.53876263      11.85646462      13.99374550 
Ag      19.94607680      11.97861737      17.18314809 
Ag      19.10767670      11.99404920      20.01503328 
Ag      18.14684832      11.99670495      22.78922379 
Ag      11.39417639      14.45403280      17.61255007 
Au       9.61923370      18.47368481      22.78062703 
Au      10.29644339      24.88910198      20.74623700 
Au      12.38627183      24.82349214      14.29677164 
Ag      13.12528494      18.34645414      12.38737976 
Ag      12.06435398      27.58134744      21.86182616 
Ag      10.71379003      18.75665367      25.98725049 
Ag      12.87267925      11.94162507      19.24887937 
Ag      15.57677591      16.49773053      11.00161931 
Ag      15.04019234      26.13138103      12.62741427 
Ag      14.49034392      26.63083911      25.61606464 
Ag      17.77305868      28.53831423      15.40254318 
Ag      19.36346974      18.95913688      10.49987186 
Ag      17.08375741      11.00826036      17.60920945 
Ag      14.01529001      15.75502959      27.03949091 
S      11.36813350      22.71536356      14.50358046 
S      11.45864308      18.16529685      14.10442155 
S      10.20509916      16.47832913      18.15961209 
S       9.27257252      19.90103495      20.94295202 
S       9.99337343      23.75134208      18.70995891 
S      13.18527155      27.00980089      13.90873090 
S      10.32783016      26.14736816      22.74239768 
S       9.66231286      17.03729554      24.65205078 
S      12.10843267      12.24523447      16.97949010 
S      14.34480834      18.44833338      10.31350474 
S      13.12388958      26.63064291      18.10463832 
S      11.24957357      22.20876711      23.99186618 
S      11.92267226      14.98007836      21.75035692 
S      14.25791995      14.93980452      14.52780249 
S      14.97546418      22.11557013      12.30280145 
S      16.82357089      25.72502898      11.08740095 
S      13.55063636      29.36554119      21.29099597 
S      11.48599919      20.20817360      27.71907464 
S      13.52312717      11.06963071      21.38304080 
S      16.84022340      14.47849450      11.19556308 
S      18.35362789      20.96273908       9.55949574 
S      16.05280579      29.71949608      16.64765669 
S      12.78263021      25.37793805      26.79075665 
S      13.01560139      13.83400075      25.95005023 
S      16.52435988      11.12424253      15.25154824 
S      20.62724858      16.88461822      10.43694115 
S      19.56547065      28.31286661      13.78200446 
S      15.91849219      28.52251330      25.12061953 
S      14.72147872      17.14307571      28.89650209 
S      17.69276054       9.97721539      19.71340227 
S      20.78235454      10.17012109      15.69118196 
S      20.10566985      13.17998679      12.04042755 
S      22.60532841      21.54789024       9.61935787 
S      20.43647492      25.59784082      10.96275884 
S      19.99466352      31.01966462      18.07995183 
S      16.97405664      30.51473562      21.74870640 
S      16.35345615      25.51109902      29.31799308 
S      14.43559708      21.12971202      29.63581771 
S      16.80294295      12.60847167      27.78007509 
S      16.41105414      10.38588355      23.55577864 
C       9.67125696      23.05546141      15.11293714 
C      10.12430737      19.34082757      13.64554991 
C       9.20604963      16.92684087      16.68813932 
C       8.11116034      18.99033557      19.85237233 
C       8.41835775      22.83113832      18.90902799 
C      12.05253619      27.70387273      12.63103561 
C       8.80837285      27.18788142      22.66663455 
C       7.92463745      17.00258082      25.26489177 
C      10.58449938      11.21244600      16.86596347 
C      13.19851644      17.81539230       9.01417269 
C      11.47761871      27.08269367      17.41494552 
C       9.44268426      22.51157720      23.81004744 
C      10.11236686      14.70188571      21.57554539 
C      12.59640433      14.50791231      13.86054971 
C      13.42788783      22.08230915      11.30619734 
C      16.13480820      24.69490680       9.73118485 
C      12.94253505      30.08732867      19.71520820 
C      10.40060737      21.69048620      27.69081151 
C      12.06551174      11.23682661      22.48856754 
C      15.62808376      13.12126605      11.44952243 
C      17.02373814      20.41826696       8.41546371 
C      14.73393193      30.18333827      15.45609117 
C      11.18696912      26.23375442      26.48275004 
C      11.20583095      13.91253098      26.25050073 
C      14.87578111      10.34133113      15.04019048 
C      21.96462538      17.25883479       9.22868829 
C      20.46568166      29.91055873      13.94093312 
C      16.32598155      29.16436839      26.79728745 
C      15.27581405      15.90846996      30.14387428 
C      18.81292832       8.61096245      19.19886063 
C      19.53632508       8.88530145      15.26657434 
C      21.30616805      12.67396947      10.74812072 
C      21.73135008      21.15581557       8.05149942 
C      21.49016139      26.94965050      10.30614395 
C      18.95389273      32.06373414      16.98052971 
C      17.38443960      31.85594167      22.93164234 
C      14.89178487      26.57723285      29.64609219 
C      14.69883442      20.61308858      31.37595501 
C      15.17670759      12.20319054      28.53566518 
C      17.17629939       8.74176046      23.82805250 
H      31.78549135      22.06700477      25.67166260 
H      31.86822178      23.57647396      26.62937707 
H      31.28796155      23.61730762      24.92539555 
H      31.52827317      19.34734817      26.31687712 
H      31.39337016      18.90668052      28.04439336 
H      30.46901019      20.30167038      27.39558635 
H      32.29264584      17.79946773      24.05670335 
H      32.57749146      16.05197009      24.30336149 
H      31.21254429      16.87101587      25.13792178 
H      33.75371115      18.95038980      20.59942513 
H      32.40573629      18.03915335      21.36339530 
H      32.91733231      19.61690735      22.03220640 
H      33.27760918      23.57291980      22.00791714 
H      32.42815464      22.19550797      21.22545754 
H      32.61563960      22.24334526      23.00277139 
H      29.84454910      27.91332787      27.91883196 
H      28.99819697      27.01066027      29.21278819 
H      28.41371384      28.63025201      28.72353767 
H      32.08654846      27.95993026      17.56010978 
H      32.99282746      26.52465228      18.12486383 
H      32.22463055      27.62051938      19.31005122 
H      32.98542578      16.58346688      14.67221568 
H      33.53890009      16.37137176      16.36019016 
H      33.39098099      18.01269868      15.66692822 
H      30.01895231      10.19215984      24.10266729 
H      30.82729066      11.50220600      25.01418490 
H      30.99214202      11.41627349      23.23612259 
H      28.58980392      18.54911004      32.08966728 
H      28.32576975      16.86929687      31.53693567 
H      27.26262710      17.57461118      32.78843464 
H      29.86841608      27.79876802      22.87955793 
H      30.03697511      26.17008526      23.61069214 
H      29.25497477      27.49178791      24.54466194 
H      32.00123313      22.03234483      16.41303032 
H      31.79761877      22.08072518      18.19265442 
H      31.63258888      23.59304439      17.23042932 
H      31.24933697      15.03037637      18.41265988 
H      30.96840678      13.67962644      19.56857554 
H      31.16711277      15.35242130      20.18174065 
H      28.65885040      13.58073858      26.55785611 
H      28.24447509      14.33606422      28.13883934 
H      29.03640732      15.31375774      26.86246571 
H      27.61455227      23.11220803      30.05369947 
H      28.34793603      21.98511771      28.86985584 
H      27.46740995      21.33204791      30.29694087 
H      23.90598943      24.32255066      31.80721392 
H      25.43035839      25.26685084      31.84422697 
H      25.29320291      23.79745953      30.81796330 
H      28.89140263      30.63206496      20.98473555 
H      28.15550373      29.31027834      21.95498974 
H      27.19562158      30.75776883      21.55121906 
H      31.52889297      21.48439201      12.97188392 
H      30.61038335      22.14796608      14.36787965 
H      30.10010549      22.53264747      12.70372666 
H      28.50259404      11.01309307      17.43150672 
H      29.60089988      10.49294176      18.74987908 
H      29.26142293      12.23792732      18.48209249 
H      24.80689230      12.22893880      29.26442593 
H      25.92525814      12.99085902      30.43917676 
H      26.04436442      13.37562910      28.68799220 
H      24.49352465      21.32134117      32.82680507 
H      24.63422200      19.74683331      31.99367697 
H      23.53156910      19.92501638      33.39702459 
H      27.00347409      30.55844572      24.91911012 
H      26.51897737      29.26295719      26.04900230 
H      25.79539245      30.89786311      26.19474294 
H      29.71348253      27.11619062      13.92383510 
H      30.49428372      25.50824947      13.99731002 
H      29.91389829      26.28148765      15.49969503 
H      29.86269996      13.65320525      13.67799934 
H      30.13079571      13.01924584      15.32947437 
H      30.09884478      14.78405983      15.05107280 
H      25.98628980       9.26591882      25.64995159 
H      26.37586474      10.46418943      26.92039727 
H      26.81259544      10.79983156      25.22078891 
H      18.18337240      16.52346391      31.78140818 
H      18.43503431      18.27825084      31.54905213 
H      19.37347019      17.39346427      32.79340288 
H      19.50549869      29.80011374      27.64662971 
H      20.17274887      30.12528040      26.01970569 
H      21.05145229      30.68294740      27.47923643 
H      25.52646302      29.63581848      13.78184733 
H      23.84603343      29.93581466      14.31569881 
H      24.26729276      28.38697490      13.52692822 
H      25.18117782      16.39727719      10.03721390 
H      24.93169351      15.14353285      11.28732649 
H      26.53033471      15.31652576      10.49431365 
H      21.77963488       8.22635662      20.77197809 
H      21.41382076       8.97565032      22.35365737 
H      22.82335758       7.88184186      22.18295870 
H      21.48196368       8.17298293      24.89402134 
H      21.11116658       8.34879316      26.63441197 
H      22.42692985       9.32201070      25.89210916 
H      19.83982413      11.99529360      30.77262697 
H      18.50907713      12.68011511      29.77718637 
H      19.43527734      13.73788826      30.90321890 
H      18.79726054      20.15536038      33.20643010 
H      18.85506178      21.90040155      33.59348909 
H      20.21016783      21.13270542      32.69772364 
H      19.75751380      27.86086484      30.27237525 
H      19.54544424      26.95959775      31.80608529 
H      18.34081621      26.77601041      30.48796710 
H      22.05107676      33.05701239      23.54964818 
H      22.93861438      31.61817285      24.15714474 
H      21.42986467      32.15219063      24.96172634 
H      24.07828257      31.65433740      17.11595673 
H      23.89646400      32.80433342      18.47709581 
H      22.46224770      31.92225250      17.85436804 
H      26.32307849      26.40872016      10.25778253 
H      26.87126817      26.27138635      11.96380753 
H      25.75049200      27.58268576      11.47945270 
H      26.80125261      20.87826801       8.97090619 
H      25.05067602      20.66282044       9.31388088 
H      26.21324365      19.33149076       9.66174932 
H      25.79406885      12.76246222      11.43362701 
H      25.71022415      11.14889197      12.19985950 
H      26.51713879      12.50800227      13.05318599 
H      24.52168191       8.22732161      16.51384565 
H      22.84808385       8.85882326      16.65957662 
H      23.75810079       8.36569881      18.12849421 
H       9.10535884      23.57190055      14.32982720 
H       9.69089779      23.65683377      16.02803067 
H       9.20313852      22.08545837      15.32161806 
H       9.60817679      18.96701018      12.75418531 
H      10.52220674      20.34313431      13.45526331 
H       9.41457474      19.38634576      14.48088937 
H       8.38090004      16.21127859      16.59597815 
H       9.81698323      16.92267139      15.77876419 
H       8.79987552      17.93309581      16.84800601 
H       7.98061464      19.59190313      18.94423986 
H       7.14635007      18.88534828      20.36046667 
H       8.51279136      18.00700751      19.58480242 
H       8.29665377      22.20015047      18.01983621 
H       7.58936299      23.54525875      18.96431739 
H       8.43816622      22.20101583      19.80450472 
H      12.49449211      28.64010579      12.26978645 
H      11.08333945      27.91202169      13.09839978 
H      11.91840563      27.01355419      11.79359366 
H       7.93573527      26.54469444      22.82764410 
H       8.71791104      27.69960850      21.70448466 
H       8.87266191      27.92779961      23.47334363 
H       7.31791078      16.41976879      24.56252112 
H       7.51124026      18.01024574      25.36240268 
H       7.92827773      16.50907419      26.24410463 
H      10.06841841      11.45858359      15.93071648 
H       9.91169573      11.38746453      17.71013552 
H      10.88328713      10.15784485      16.84996206 
H      13.78496728      17.59171209       8.11547712 
H      12.46809018      18.60019824       8.78585543 
H      12.67342137      16.91326265       9.34053498 
H      11.62751038      27.49086829      16.40913940 
H      11.02104851      27.83482259      18.06900791 
H      10.83821536      26.19440544      17.37204920 
H       9.27091389      23.59342648      23.83635817 
H       8.92364894      22.02152007      24.64212502 
H       9.09170590      22.09537215      22.85966955 
H       9.94228370      13.64525898      21.33755760 
H       9.71661159      15.33217092      20.77157174 
H       9.63163309      14.95944971      22.52607208 
H      12.68962615      14.33087077      12.78256870 
H      11.89896769      15.33393358      14.03974595 
H      12.25027489      13.59946821      14.36713011 
H      13.49059506      21.24188031      10.60520071 
H      13.34533096      23.02979423      10.76086067 
H      12.56371424      21.96345235      11.96876257 
H      15.46609976      25.30469853       9.11397656 
H      15.60102604      23.82187040      10.12200055 
H      16.98334258      24.34979572       9.12729912 
H      13.71964942      30.77309611      19.35523973 
H      12.01718124      30.64309798      19.90186204 
H      12.77540519      29.31376616      18.95790364 
H      10.86110405      22.43850886      28.34806612 
H       9.40913155      21.42371340      28.07255475 
H      10.31924142      22.10908730      26.68170165 
H      11.29858053      10.51450475      22.18846062 
H      11.65992184      12.25435496      22.46528153 
H      12.40564678      11.01376981      23.50741890 
H      15.08062787      12.94339725      10.51753334 
H      14.93037384      13.35327142      12.26167561 
H      16.20045977      12.22487495      11.71898667 
H      17.47723893      19.93014591       7.54548499 
H      16.47937607      21.31244479       8.08833855 
H      16.32543506      19.73191459       8.90723472 
H      15.12456619      30.93102692      14.75687483 
H      13.90567378      30.61804203      16.02878356 
H      14.36926981      29.31050052      14.90399397 
H      10.39189601      25.62418057      26.92916449 
H      10.99324744      26.34561091      25.41060327 
H      11.20383675      27.21799310      26.96377784 
H      10.73654135      13.10966593      25.66908491 
H      10.78727877      14.87434072      25.93596445 
H      11.01081567      13.75169379      27.31663958 
H      14.56189807      10.50298811      14.00188075 
H      14.13108362      10.78039793      15.71319514 
H      14.96322413       9.26585595      15.23074821 
H      21.53034298      17.29804732       8.22310978 
H      22.69801546      16.44492200       9.27551557 
H      22.46200456      18.20900523       9.45395516 
H      19.84598603      30.70909276      13.51706557 
H      21.39635742      29.83051533      13.36650502 
H      20.70311356      30.14147507      14.98551168 
H      17.10005087      29.93268163      26.68351950 
H      16.69634644      28.37148491      27.45647437 
H      15.42737064      29.61699495      27.23181285 
H      14.39824186      15.37740219      30.52997660 
H      15.75869604      16.45386545      30.96363096 
H      15.98559161      15.19036734      29.71817670 
H      18.22347278       7.84304423      18.68490950 
H      19.25430877       8.18104678      20.10605112 
H      19.61303925       8.96653213      18.54015711 
H      19.87967091       8.35883216      14.36893818 
H      18.55140798       9.33107370      15.08888710 
H      19.47507846       8.17776855      16.10174839 
H      21.31901719      13.46766569       9.99141939 
H      20.95595984      11.73965376      10.29461726 
H      22.31018655      12.53454380      11.16434846 
H      21.99987860      21.91316680       7.30648631 
H      20.64569719      21.14023182       8.19882882 
H      22.07053006      20.17166223       7.70709291 
H      21.32561022      27.02122447       9.22480070 
H      22.55120515      26.77013873      10.51204133 
H      21.16348981      27.87852230      10.78911269 
H      19.46563888      32.16155338      16.01587153 
H      18.85419980      33.05340725      17.44029553 
H      17.96487694      31.61731269      16.82852399 
H      17.03008916      32.80642424      22.51656130 
H      18.46239104      31.90862450      23.12058862 
H      16.84883480      31.63926921      23.86376955 
H      15.18691055      27.62173173      29.49104215 
H      14.59171649      26.43662454      30.69067271 
H      14.06004472      26.32667797      28.97842519 
H      14.49561508      19.53667871      31.42955824 
H      13.98631802      21.15307391      32.01018755 
H      15.72324139      20.81871358      31.70574099 
H      15.14844722      11.12531128      28.73143021 
H      14.34935665      12.48705754      27.87597941 
H      15.09300414      12.74657970      29.48424355 
H      17.31531574       8.27912220      22.84344651 
H      16.48978301       8.13111709      24.42579238 
H      18.14074974       8.82833267      24.34120746 
