646
Properties=species:S:1:pos:R:3 i=96 optimized=T E=-9963.7951050795 pbc="F F F" jobid=246_80-Ag-39_8-000008-PBE
Ag      21.88021093      20.22446396      20.88494038 
Au      24.70249984      20.20022842      21.84756355 
Au      20.45587865      22.72095919      20.43515030 
Ag      19.73472578      20.98385523      22.70493771 
Au      20.04374952      18.19482660      21.85022566 
Au      21.15004361      23.51712940      23.15118808 
Au      20.38396298      21.80197765      25.42862659 
Ag      20.68881990      18.97715317      24.60462066 
Au      20.95604234      16.15191833      23.73930796 
Au      21.87693195      16.13474004      20.91140744 
Ag      22.76554246      16.11181239      18.07568047 
Ag      23.06575163      18.91327818      17.21137134 
Au      23.27809393      21.76910203      16.32367278 
Ag      22.63278748      23.49956520      18.59031236 
Ag      21.83797149      25.21564150      20.86400066 
Ag      23.34668560      22.72902690      21.34594958 
Au      22.59329007      20.99506498      23.64801593 
Ag      22.86674625      18.20118263      22.77187311 
Au      23.78288547      18.16883718      19.94401037 
Au      24.03988460      20.97902792      19.07734711 
Au      20.91256476      14.00823920      18.98037609 
Ag      21.82430927      14.02612063      16.16077606 
Au      22.17824509      16.83253330      15.28296800 
Au      22.42065598      19.70859977      14.40890238 
Ag      22.67160238      22.58210018      13.55130673 
Au      21.96654958      24.35074553      15.82177125 
Au      21.16172637      26.09959017      18.12345811 
Au      20.42879405      27.79902610      20.44255370 
Ag      25.42890020      22.55368316      14.47002702 
Ag      24.84452320      24.33364261      16.70650582 
Au      24.02591724      25.98424912      19.01026996 
Au      23.15096430      27.76572111      21.24364525 
Au      22.48323921      26.08795559      23.63209941 
Ag      21.76108975      24.40051625      25.85382034 
Ag      20.98511475      22.59907073      28.19438341 
Au      21.37116655      19.81292090      27.38649084 
Au      21.62692043      16.97565878      26.48388331 
Ag      21.83345108      14.11243323      25.61503182 
Au      22.88179552      14.03532808      22.83411902 
Au      23.68740683      14.05890911      19.95690877 
Ag      24.51067077      14.02359459      17.12855414 
Ag      24.93795685      16.85466104      16.22018392 
Au      25.21149320      19.65472203      15.40431017 
Ag      23.61582646      19.01976383      25.57969550 
Au      23.75345494      16.20848171      24.63080495 
Au      24.81058278      16.14894210      21.86170564 
Au      25.59259776      16.10194028      18.99630799 
Au      26.03439931      18.89879466      18.10160733 
Au      26.14217116      21.77089112      17.20722685 
Au      25.58129023      23.55204226      19.50158007 
Au      24.72119703      25.25092984      21.73866261 
Au      24.09812205      23.58174911      24.08787060 
Au      23.21648752      21.91190647      26.31445673 
Au      26.25534963      22.80780985      22.27884745 
Au      25.49479185      21.04166108      24.63051022 
Ag      25.78846618      18.15487375      23.78177757 
Au      26.68237560      18.14656733      20.88037453 
Au      26.90593226      21.01957049      19.97982212 
Au      27.59465920      20.24149286      22.77824264 
Au      27.74749379      15.29659748      21.21420947 
Ag      28.40764655      17.29090166      18.62454427 
Ag      28.66676703      20.02764329      17.73405976 
Ag      28.38458756      23.28326201      18.78688703 
Ag      27.71882497      25.06104890      20.92926361 
Au      26.69781590      25.04491847      24.23609341 
Ag      25.95940588      23.44818072      26.44290005 
Au      25.71982627      20.06490081      27.42340619 
Au      25.88125297      17.44525933      26.68731427 
Au      26.89668738      15.41555155      23.82549949 
Au      28.63831825      17.62976483      22.94011014 
Au      29.24820478      19.40182320      20.55104415 
Ag      29.00727198      22.36277213      21.50032091 
Ag      28.02597087      22.45299687      24.51785095 
Ag      27.80875131      19.41212298      25.48920220 
Au      25.60796385      13.39975723      22.12939650 
Ag      26.38948039      13.38132366      19.27723570 
Au      27.14366132      15.13760296      16.90522641 
Ag      27.60363808      17.96801695      15.89605967 
Ag      27.75182129      20.85682177      15.01795405 
Ag      27.66663329      23.78418300      15.94519920 
Ag      26.86480056      25.74549772      18.20740735 
Ag      25.93569783      27.53462021      20.50225552 
Au      25.05399320      27.49628655      23.38542853 
Au      24.36079822      25.84488764      25.82622572 
Au      23.45748510      24.06248477      28.10931934 
Ag      23.44389418      21.18004832      29.03646790 
Au      23.54550591      18.25162236      28.35605734 
Ag      23.76083271      15.38954605      27.39412758 
Ag      24.75252413      13.57541654      25.02943314 
Au      24.27528295      11.65852741      15.30975784 
Ag      24.02501709      14.83740006      14.35849048 
Ag      24.28915570      17.59615501      13.46223141 
Au      24.50388521      20.44019342      12.69419612 
Au      25.58005614      23.25307741      11.51347966 
Au      24.09650254      25.12124834      14.01185214 
Au      23.34084497      26.83312266      16.25044513 
Ag      22.61240586      28.53998856      18.51219331 
Au      22.51857934      30.71496328      20.89271685 
Au      21.17488584      28.58252693      23.23960538 
Ag      20.28827335      26.94895775      25.48054963 
Au      19.58773533      25.11401785      27.66381756 
Au      19.43739804      23.62479535      30.58246215 
Ag      19.26717351      20.47362531      29.29104625 
Au      19.43677139      17.70493565      28.32717905 
Ag      19.69235369      14.91055023      27.47085098 
Au      20.56989375      11.89426074      27.20633703 
Au      20.99734456      12.02637371      23.76444661 
Au      21.79570390      11.95307195      20.96202571 
Ag      22.69025286      11.97323808      18.16072232 
Au      29.72694766      14.31262683      23.47173791 
Ag      31.17125881      18.41816650      18.13265837 
Au      30.66224605      24.88918964      20.09396272 
Au      28.67303779      24.87126188      26.74811979 
Ag      27.91794977      18.41178422      28.68514966 
Au      28.88978723      27.72150128      18.91465567 
Au      30.25850642      18.59349890      14.79671989 
Au      28.00601503      11.72103838      21.70354028 
Ag      25.39962528      16.51000351      29.86052855 
Ag      25.88624285      26.14818606      28.29710229 
Ag      26.51108717      26.60695891      15.29668172 
Ag      23.11906729      28.58081725      25.61106662 
Au      21.66905627      19.01050265      30.69632274 
Ag      23.96141225      11.13553232      23.23677479 
Ag      26.95136195      15.75372464      13.82137284 
S      29.65739707      22.77097241      26.37527805 
S      29.55906356      18.35166656      26.93140566 
S      30.76906791      16.38176221      23.08065038 
S      31.60550327      19.83796756      20.02854671 
S      31.02442021      23.71262075      22.09185919 
S      27.92623579      27.02959986      27.32161434 
S      30.54801570      26.21710892      18.13994728 
S      31.33330388      17.00648165      16.18396330 
S      28.85035546      12.15935244      23.87663315 
S      26.71670392      18.32571745      30.77081450 
S      28.03708234      26.61945985      22.90156779 
S      29.74430889      22.19261864      16.96342790 
S      29.19916003      14.98416633      19.25537959 
S      26.72240270      15.15518646      26.25908938 
S      26.10416742      22.15573238      28.63279184 
S      24.03586392      25.71476770      29.79469698 
S      27.35364848      29.36069545      19.57775823 
S      29.33176867      20.09132544      13.24434150 
S      27.31147676      11.07978040      19.55544572 
S      24.20599582      14.42599382      29.61835448 
S      22.69969191      21.01646136      31.40352434 
S      24.93377342      29.70228223      24.37701905 
S      28.21919283      25.35138212      14.11289288 
S      27.92119142      13.85506888      14.99867016 
S      24.48718729      11.19380599      25.62703987 
S      20.45429607      16.99785425      30.42477190 
S      21.31187800      28.40193660      27.22676870 
S      25.10318308      28.49264815      15.91864187 
S      26.24774974      17.16031278      11.99206591 
S      23.36268328      10.09669373      21.09157963 
S      20.29794512      10.36934721      25.43182875 
S      20.75671504      13.30095139      29.07473606 
S      18.43691123      21.64604783      31.34790670 
S      20.35301019      25.69345830      29.91888136 
S      21.08611336      31.00234685      22.74580922 
S      23.92298888      30.62663500      19.01411217 
S      24.71697385      25.43332435      11.62726735 
S      26.42039411      21.06831223      11.29624035 
S      24.18743613      12.64199621      13.17013546 
S      24.50449448      10.47658542      17.32464461 
C      31.33622214      23.10976681      25.71815808 
C      30.91722496      19.49997241      27.38227190 
C      31.73476910      16.80788370      24.57524058 
C      32.66845484      18.91533144      21.20534803 
C      32.59007639      22.78702972      21.86205985 
C      28.95518399      27.51541833      28.76961294 
C      32.09017055      27.22209703      18.16590727 
C      33.08827615      17.06282838      15.62715116 
C      30.31238007      11.05256498      24.01072329 
C      27.83260783      17.51972025      31.99593481 
C      29.71787773      26.80212298      23.61404981 
C      31.56151330      22.43160606      17.12869472 
C      30.96838320      14.94675181      19.74284036 
C      28.36894633      14.81357707      26.99533493 
C      27.70737165      22.00968162      29.51871648 
C      24.69913335      24.69653178      31.17038050 
C      28.05812505      30.06700971      21.12108486 
C      30.51583790      21.49521054      13.18797265 
C      28.83903994      11.16292322      18.53860136 
C      25.44939235      13.11672895      29.28238600 
C      24.11905464      20.51814744      32.45292485 
C      26.32944938      29.93169071      25.54082468 
C      29.83383920      26.17121023      14.41406806 
C      29.74286934      13.93399350      14.82065233 
C      26.12832904      10.40946137      25.87119470 
C      19.10825008      17.12688662      31.66816055 
C      20.42804626      30.00846197      27.08171817 
C      24.70377832      29.26573827      14.29954080 
C      25.68351828      15.93965596      10.73545683 
C      22.31135017       8.66593224      21.56556604 
C      21.53310998       9.03695399      25.68060718 
C      19.48169167      12.70610031      30.25370751 
C      19.29699379      21.19783474      32.90565421 
C      19.23174148      26.98162942      30.58250925 
C      22.02436029      31.99813447      23.96889393 
C      23.36395098      31.98545594      17.91586791 
C      26.12379020      26.57742469      11.34801986 
C      26.08677723      20.54467263       9.57283369 
C      25.80124394      12.24028286      12.38963076 
C      23.82173725       8.80225417      17.01720987 
Au      19.02088369      20.20050621      19.96555503 
Ag      16.15105327      20.19535156      19.02808982 
Ag      21.18538769      20.98951000      18.16228922 
Ag      20.93771727      18.18789517      19.01883863 
Ag      19.77076324      23.53568490      17.71428771 
Ag      20.52223967      21.81395323      15.46595685 
Ag      20.25483644      18.97876199      16.28911623 
Au      20.01183841      16.18038159      17.15353467 
Au      19.07139882      16.15376403      19.92881722 
Au      18.19800062      16.14902242      22.78336495 
Au      17.85004882      18.89433880      23.66110655 
Au      17.60786169      21.71916118      24.49687051 
Ag      18.27993707      23.49749077      22.28580866 
Au      19.04413799      25.19418144      20.01865268 
Ag      17.56473317      22.70538345      19.52971654 
Au      18.32282146      20.97695678      17.25869958 
Ag      18.03148402      18.18081425      18.07459135 
Au      17.11229109      18.15488211      20.86895610 
Au      16.84017018      20.95253683      21.76221226 
Au      20.03698634      14.00214178      21.87360129 
Au      19.04106465      14.05480476      24.73467982 
Au      18.75992467      16.84533435      25.60519689 
Au      18.54905031      19.71547015      26.50728827 
Au      18.24459155      22.54488364      27.32260148 
Au      18.91548772      24.36234339      25.04592717 
Ag      19.70261542      26.07676741      22.77287279 
Au      15.51684602      22.49138610      26.40091962 
Au      16.08234071      24.26075935      24.12050175 
Ag      16.87551738      25.99745579      21.89114212 
Au      17.69946829      27.74086790      19.67228221 
Ag      18.33212167      26.09276431      17.26129895 
Ag      19.12709575      24.38413517      15.04913625 
Au      19.94481675      22.62530720      12.75845826 
Au      19.61040415      19.76975973      13.55448689 
Au      19.32296434      16.97888092      14.41642789 
Ag      19.11180232      14.14406572      15.24746113 
Au      18.11072384      14.06906198      18.00841078 
Au      17.27572731      14.08623540      20.81173263 
Au      16.36150610      14.10584386      23.74701148 
Ag      15.90966604      16.80607213      24.64966065 
Au      15.73961373      19.57526056      25.47640931 
Ag      17.29093177      19.00844216      15.28108084 
Ag      17.14633947      16.19822346      16.16541901 
Au      16.09783169      16.05222764      18.90548629 
Au      15.35876063      16.06197702      21.77765446 
Au      14.86214913      18.82005614      22.71934096 
Au      14.74159942      21.65351066      23.63321163 
Ag      15.36191364      23.46387193      21.33973121 
Au      16.18663724      25.22203307      19.13866271 
Au      16.82437481      23.53741083      16.80453397 
Au      17.68011047      21.86747981      14.61903623 
Au      14.67278185      22.76883814      18.60112969 
Ag      15.42237197      21.01340127      16.23488597 
Au      15.20783781      18.15262042      17.09351860 
Au      14.23117238      18.07703300      19.95920754 
Au      13.95542100      20.96967007      20.89239466 
Au      13.30296765      20.20485266      18.10379527 
Ag      13.35356848      15.17471881      19.53070055 
Au      12.33660492      17.34943393      22.23247030 
Au      12.09687293      19.96373099      23.15155734 
Ag      12.53296608      23.23909627      22.05888864 
Ag      13.19895407      25.02374113      19.93638312 
Ag      14.20267637      24.99550119      16.71589826 
Ag      14.95151364      23.40219612      14.42541871 
Au      15.19869728      20.04479986      13.37810372 
Ag      15.01221421      17.33923045      14.13410473 
Au      14.23100876      15.31415733      16.83492204 
Ag      12.43544682      17.48520139      17.78837878 
Au      11.64248861      19.35715216      20.22475143 
Ag      11.89870477      22.38081695      19.34721488 
Au      12.89630784      22.40919897      16.36730821 
Au      13.21122550      19.31231715      15.41400245 
Ag      15.41306811      13.23897454      18.61509427 
Au      14.68322613      13.29924298      21.55978944 
Ag      13.60821000      15.12851023      23.79108260 
Au      13.28688933      17.92290271      24.96797584 
Au      13.24605371      20.82794629      25.93099205 
Ag      13.27402374      23.72021929      24.94523304 
Au      14.04842346      25.63019453      22.65493185 
Ag      14.90965625      27.48853642      20.41014313 
Au      15.79141812      27.47422391      17.50848708 
Au      16.47898856      25.79103948      15.07231133 
Au      17.43990430      24.02355209      12.79797653 
Au      17.59321773      21.12955975      11.93299392 
Au      17.34675984      18.21512155      12.55707053 
Au      17.24341055      15.34815423      13.43368396 
Au      16.35142946      13.54412143      15.74399042 
Ag      16.70795230      11.75824514      25.55424206 
Ag      16.81217903      14.79566254      26.56590516 
Au      16.71674706      17.56552087      27.43265688 
Au      16.46098490      20.41330797      28.25463563 
Au      15.31212961      23.32713930      29.32727657 
Ag      16.71038869      25.09452692      26.87049503 
Au      17.53440758      26.79028261      24.62688484 
Ag      18.32983081      28.56520266      22.41035234 
Au      18.34283626      30.69629550      19.92961490 
Ag      19.71800029      28.61739156      17.69400852 
Au      20.55382776      26.93185489      15.47325986 
Ag      21.24545096      25.18308260      13.16453007 
Ag      21.55992550      23.62631909      10.44575229 
Au      21.65820296      20.51475028      11.65468067 
Au      21.53157080      17.71034035      12.56783593 
Ag      21.20506026      14.93325215      13.38469569 
Ag      20.59444255      11.89170740      13.88871418 
Au      19.84859169      12.00640766      17.08658074 
Au      19.10650701      11.96687728      19.94801539 
Ag      18.17530003      12.00991701      22.75027192 
Au      11.25038314      14.33146451      17.46472404 
Au       9.45726081      18.35386804      22.75757989 
Ag      10.30471922      24.87037052      20.79977239 
Au      12.32127375      25.07738978      14.21671982 
Au      12.80613635      18.36758510      12.11810398 
Ag      12.01994407      27.57188514      21.91423982 
Au      10.60858497      18.62809403      26.09400459 
Au      12.89993365      11.73377683      19.17801819 
Ag      15.45665192      16.47429901      11.10157346 
Au      15.06778242      26.44929766      12.54121490 
Ag      14.38808397      26.61148264      25.47189937 
Ag      17.65778870      28.55183586      15.30926508 
Au      19.29879258      18.86915477      10.18753997 
Au      16.91560704      10.77136126      17.49505863 
Au      13.82071561      15.67299910      26.97325867 
S      11.31702549      22.98975030      14.56613816 
S      11.39599576      18.43718699      13.99410048 
S      10.18699685      16.37463239      17.89104920 
S       9.27095914      19.65974733      20.80851814 
S       9.86051794      23.68304276      18.76916181 
S      13.15569078      27.21816689      13.69953387 
S      10.18192475      26.24790436      22.76047296 
S       9.45190369      17.06952708      24.73816981 
S      12.06987350      12.16337206      17.01003630 
S      14.04185437      18.20015535      10.12994083 
S      12.90124362      26.67670641      18.04624547 
S      11.12147133      22.14092154      23.81503733 
S      11.83996092      15.04575566      21.56846775 
S      13.93433336      15.05151907      14.40359610 
S      14.65764778      22.16177948      12.23280097 
S      16.90246223      25.81370774      11.22087944 
S      13.53126705      29.33911166      21.31605923 
S      11.57918318      20.16183624      27.58815820 
S      13.65045449      11.10260992      21.30971650 
S      16.69869901      14.39663756      11.25812529 
S      18.17123192      20.85781618       9.58008151 
S      15.97207562      29.74404258      16.63786727 
S      12.70796954      25.35455071      26.71132219 
S      12.95542576      13.81121244      25.80358072 
S      16.38319559      11.13921529      15.22215052 
S      20.60204129      16.91776325      10.43782781 
S      19.50588683      28.28280580      13.74494159 
S      15.85761285      28.52076094      25.02663378 
S      14.59071654      17.23260220      28.57609677 
S      17.51532131      10.11753168      19.67847734 
S      20.73576413      10.23912943      15.64516770 
S      20.23628771      13.18939503      11.90304544 
S      22.55307999      21.58212024       9.63818134 
S      20.56675416      25.77433119      10.84019599 
S      19.76774037      31.08027705      18.08970964 
S      16.95280598      30.58798524      21.82246904 
S      16.10403879      25.53840232      29.26286876 
S      14.54594225      21.11286648      29.62127616 
S      16.74304754      12.63159043      27.80298286 
S      16.46387862      10.40539194      23.57375005 
C       9.63963447      23.32289739      15.22278066 
C      10.11011932      19.70054886      13.67125145 
C       9.16359347      16.74588462      16.41437190 
C       8.16846257      18.75894697      19.65729387 
C       8.31398836      22.72769488      19.02663297 
C      12.05033540      27.83462920      12.36417687 
C       8.69670038      27.31504948      22.52847552 
C       7.72380167      17.13988089      25.36292233 
C      10.57515220      11.09408614      16.91655466 
C      12.94992775      17.29299994       8.95788648 
C      11.20562592      26.94518967      17.38705363 
C       9.33509225      22.32833569      23.43139553 
C      10.02564680      14.87412504      21.34116855 
C      12.15248952      14.91873884      13.99419798 
C      12.98626917      22.04868891      11.48592807 
C      16.17199725      24.87649739       9.82145464 
C      12.86332270      30.08651628      19.77639505 
C      10.43720619      21.59827577      27.59824425 
C      12.17470665      11.21896289      22.39568802 
C      15.49064075      13.06566181      11.62124873 
C      16.68635078      20.37567410       8.62509614 
C      14.54862648      30.12906919      15.55198611 
C      11.08768277      26.15423845      26.39285666 
C      11.13842363      13.87749266      26.04818112 
C      14.70077866      10.47184888      14.93971067 
C      21.95475144      17.15940598       9.21935793 
C      20.40472395      29.88421210      13.82096619 
C      16.25160983      29.18252832      26.69540261 
C      15.02148215      16.17342095      30.01432440 
C      18.57476650       8.64292884      19.39997632 
C      19.45865306       8.97793018      15.25312378 
C      21.50433988      12.67057114      10.68130820 
C      21.61298828      21.13255257       8.12634807 
C      21.71149743      27.04276150      10.17185169 
C      18.81003041      32.09505890      16.89700538 
C      17.49267939      31.97746305      22.89259092 
C      14.65771875      26.63375644      29.53496832 
C      14.87245162      20.71083454      31.37928717 
C      15.09991870      12.24911002      28.53166675 
C      17.26963259       8.80074802      23.95737318 
H      31.78770163      22.14012955      25.47362947 
H      31.93121351      23.60322580      26.49448055 
H      31.29867946      23.73035941      24.81707185 
H      31.62155952      19.53894721      26.54181370 
H      31.43370154      19.11068891      28.26685591 
H      30.54062215      20.50859467      27.58094734 
H      32.20903294      17.77908854      24.38634725 
H      32.50697821      16.04374712      24.71791521 
H      31.09232907      16.88460455      25.45965124 
H      33.67364468      18.83690367      20.77540472 
H      32.26829534      17.91771119      21.41364863 
H      32.71360395      19.48741888      22.14013154 
H      33.41263941      23.50004145      21.74035988 
H      32.53118100      22.11325247      21.00086202 
H      32.75043114      22.19921879      22.77460301 
H      29.97543539      27.71619015      28.42317717 
H      28.97322678      26.73331549      29.53360198 
H      28.52486044      28.43167471      29.19118998 
H      32.01264176      27.97565754      17.37335926 
H      32.93323966      26.55269291      17.95925036 
H      32.23151969      27.71187993      19.13328918 
H      33.14772184      16.64036694      14.61751349 
H      33.67636523      16.44646520      16.31739512 
H      33.47887333      18.08419665      15.62354091 
H      29.94737650      10.01980825      24.05792009 
H      30.84197257      11.30067835      24.93781006 
H      30.98333901      11.17076525      23.15553966 
H      28.59172229      18.24712312      32.30650651 
H      28.32561482      16.63795732      31.57697176 
H      27.23603691      17.22330795      32.86660045 
H      30.29853645      27.44535313      22.94159939 
H      30.21406918      25.83131996      23.70620389 
H      29.62080837      27.27166869      24.59986354 
H      32.06738357      21.83901534      16.35735531 
H      31.89220196      22.10579828      18.12067503 
H      31.78262245      23.49610325      16.99159917 
H      31.55995727      14.95946806      18.81928209 
H      31.16010076      14.02357341      20.30281045 
H      31.22743166      15.80800431      20.36628033 
H      28.71566925      13.85028965      26.60375324 
H      28.25146035      14.76655985      28.08480535 
H      29.07334739      15.60948925      26.73176048 
H      27.89710484      22.96596078      30.02111843 
H      28.51772049      21.80337892      28.81186755 
H      27.62551732      21.20093167      30.25448746 
H      23.84595028      24.26005126      31.70440375 
H      25.26422079      25.35162714      31.84347127 
H      25.34129100      23.89166615      30.79635308 
H      28.94816959      30.65695361      20.87791186 
H      28.30106862      29.28069922      21.84493771 
H      27.28344980      30.71867703      21.54449156 
H      31.45198756      21.16600407      12.72445885 
H      30.70214821      21.89976384      14.18856056 
H      30.04826719      22.27157919      12.56930337 
H      28.52795634      11.02223423      17.49568115 
H      29.51811677      10.35613535      18.83476534 
H      29.33161897      12.13664093      18.64093778 
H      24.90465541      12.22612300      28.94476061 
H      25.99096034      12.89142347      30.20794166 
H      26.15343413      13.41638768      28.49905261 
H      24.68503387      21.43035342      32.67871051 
H      24.77322422      19.80236310      31.94268052 
H      23.73882433      20.08444395      33.38448102 
H      27.23600406      30.13020932      24.95695120 
H      26.49047291      29.04700934      26.16443141 
H      26.10321059      30.79778222      26.17418713 
H      29.84406359      27.14382367      13.90952308 
H      30.61766979      25.53267152      13.98891369 
H      30.02026551      26.30492539      15.48488445 
H      29.99901274      13.63021415      13.79894789 
H      30.18142175      13.22781159      15.53575399 
H      30.12863791      14.93878853      15.02164740 
H      26.03248302       9.32966662      25.70967719 
H      26.44220527      10.59536943      26.90555155 
H      26.87795613      10.82133286      25.18762490 
H      18.41405508      16.29657319      31.49018395 
H      18.57442926      18.07915792      31.58226554 
H      19.55108144      17.03127827      32.66643394 
H      19.52018779      29.95214927      27.69471884 
H      20.14807618      30.22139038      26.04466269 
H      21.07173557      30.80930440      27.46360293 
H      25.59679468      29.78904009      13.93755231 
H      23.89434322      29.98880707      14.45631296 
H      24.38647217      28.51754829      13.56593669 
H      25.20815261      16.49617917       9.91870795 
H      24.96128958      15.23026624      11.15457373 
H      26.55226923      15.39749330      10.34487868 
H      21.79598479       8.30020154      20.66960252 
H      21.57196041       8.94744687      22.32222664 
H      22.96501355       7.87821464      21.95908606 
H      21.50712452       8.38519718      24.79938067 
H      21.23318883       8.46696167      26.56760402 
H      22.53860941       9.45192816      25.81290752 
H      19.82065251      11.76141056      30.69356076 
H      18.51155452      12.56909867      29.76246740 
H      19.40213958      13.46586694      31.04100070 
H      18.94565279      20.20308712      33.20469186 
H      19.02148048      21.92875331      33.67411499 
H      20.38314673      21.17810666      32.76916896 
H      19.49393109      27.91774651      30.07424322 
H      19.42238052      27.07819804      31.65778960 
H      18.18055840      26.72950697      30.40398689 
H      22.11385349      33.01543359      23.57020434 
H      23.01695567      31.57431860      24.15214957 
H      21.44891683      32.01923760      24.90169906 
H      23.83588285      31.82081545      16.93946614 
H      23.70571821      32.94067578      18.33041393 
H      22.27319766      31.99023477      17.81167754 
H      26.42502978      26.48947194      10.29780862 
H      26.96410201      26.33898870      12.00942081 
H      25.76826268      27.59616052      11.54303693 
H      26.79698522      21.05645559       8.91317161 
H      25.05656919      20.77617887       9.27977648 
H      26.26157255      19.46211500       9.53895046 
H      25.87088495      12.81047073      11.45560737 
H      25.81931879      11.16783306      12.16575190 
H      26.63566231      12.50417588      13.04787894 
H      24.51412579       8.24708555      16.37467041 
H      22.83114695       8.85566539      16.55270675 
H      23.75316397       8.31124571      17.99582949 
H       9.06599440      23.85484098      14.45568393 
H       9.67846490      23.89994502      16.15231209 
H       9.17360900      22.34963568      15.42115673 
H       9.48818618      19.35728841      12.83675816 
H      10.54892488      20.67699383      13.44411718 
H       9.49781674      19.77856786      14.57824874 
H       8.40722257      15.96289147      16.29336329 
H       9.77212646      16.83288860      15.50843286 
H       8.66591170      17.70506053      16.60564790 
H       8.14297387      19.32750510      18.71942510 
H       7.16418194      18.72708992      20.09502981 
H       8.53504900      17.74603625      19.46218771 
H       8.14283467      22.11960385      18.12958598 
H       7.47902499      23.42574323      19.15336111 
H       8.38810065      22.06750497      19.89683042 
H      12.49335987      28.75295035      11.96141184 
H      11.07425791      28.05905071      12.80963757 
H      11.93558653      27.09590740      11.56637282 
H       7.80055759      26.70899722      22.70517341 
H       8.65543195      27.74091944      21.52194913 
H       8.73748562      28.12606844      23.26499505 
H       7.09491727      16.55212612      24.68426852 
H       7.35792900      18.16903110      25.41170676 
H       7.70982248      16.69125572      26.36311756 
H      10.04393530      11.34063287      15.98990536 
H       9.91641570      11.25102555      17.77500568 
H      10.90747215      10.04989539      16.88606319 
H      13.55199506      17.03285564       8.07908924 
H      12.12877890      17.95366339       8.65739650 
H      12.54504070      16.38166190       9.40636617 
H      11.29040001      27.35278651      16.37284034 
H      10.69059023      27.66341166      18.03648066 
H      10.64571348      26.00449228      17.36654691 
H       9.07542858      23.38336797      23.58161418 
H       8.76388168      21.69133573      24.11703403 
H       9.12649647      22.03298421      22.39817410 
H       9.83033656      13.85578596      20.98386754 
H       9.66369946      15.59614238      20.60230530 
H       9.53534403      15.04070544      22.30669922 
H      12.04342110      15.06786511      12.91279560 
H      11.56530216      15.67403460      14.52394615 
H      11.81003414      13.91608237      14.27549612 
H      13.01890073      21.30727454      10.67913051 
H      12.73175066      23.03714981      11.08403703 
H      12.24045550      21.75832892      12.23132452 
H      15.62875597      25.57496220       9.17531141 
H      15.50635445      24.08395759      10.18121720 
H      17.00952063      24.43120085       9.26990945 
H      13.63585773      30.75494509      19.37625547 
H      11.96387756      30.66425399      20.01619681 
H      12.63311574      29.31818674      19.02902621 
H      10.94788566      22.40536951      28.13853446 
H       9.51913124      21.31455255      28.12470607 
H      10.21325184      21.92987271      26.57865996 
H      11.48483887      10.40615917      22.14299063 
H      11.68227726      12.19171931      22.29244506 
H      12.53497511      11.09918451      23.42522621 
H      14.97430527      12.80674383      10.68957013 
H      14.76780094      13.38433881      12.38117914 
H      16.05066225      12.19732165      11.98987320 
H      17.01022203      20.00998492       7.64387480 
H      16.07354319      21.27677204       8.50110727 
H      16.10247408      19.60783740       9.14191711 
H      14.80005693      31.01974195      14.96378677 
H      13.68181169      30.34196352      16.18908520 
H      14.30992314      29.29589145      14.88396204 
H      10.30876481      25.51047836      26.81911213 
H      10.89923367      26.28350940      25.32140016 
H      11.06762848      27.12851025      26.89413935 
H      10.70163767      13.08970509      25.42205591 
H      10.72652461      14.84718076      25.74979613 
H      10.90749486      13.67752721      27.10034115 
H      14.41578015      10.73952856      13.91482648 
H      13.97811797      10.89810017      15.64302298 
H      14.73467745       9.38119276      15.04073542 
H      21.52963355      17.10563016       8.21044612 
H      22.67178448      16.34157628       9.36084175 
H      22.45801529      18.12018316       9.37001336 
H      19.80692279      30.63510994      13.29061806 
H      21.36997929      29.76124316      13.31557866 
H      20.57106489      30.20427609      14.85523215 
H      17.08740083      29.88570165      26.59920140 
H      16.52555637      28.38285568      27.39211959 
H      15.36771525      29.71359064      27.06839363 
H      14.09191928      15.79736610      30.45728781 
H      15.54925952      16.80322102      30.74085922 
H      15.66280097      15.33744108      29.71504852 
H      17.94831893       7.82784879      19.01975638 
H      18.99936530       8.36032728      20.37104748 
H      19.38380459       8.86127611      18.69537321 
H      19.87372917       8.32320039      14.47751213 
H      18.53201267       9.44026190      14.89948688 
H      19.25150046       8.39154333      16.15578951 
H      21.56574551      13.45291007       9.91531790 
H      21.17727543      11.73283375      10.21727435 
H      22.48377128      12.52870699      11.15105249 
H      21.97861929      21.77050795       7.31270957 
H      20.53715757      21.27780521       8.26281406 
H      21.81058731      20.08175799       7.88506668 
H      21.58468676      27.09462746       9.08419797 
H      22.75450919      26.80793192      10.41035997 
H      21.43557056      28.00667602      10.61642142 
H      19.40005945      32.17916113      15.97662424 
H      18.66799345      33.09151804      17.33043655 
H      17.83949005      31.63813531      16.67614100 
H      17.13618923      32.91947970      22.46069077 
H      18.58272535      32.00207271      22.99869857 
H      17.02314194      31.82323628      23.87197767 
H      14.99278775      27.66759414      29.38856212 
H      14.31659644      26.50400993      30.56817445 
H      13.84881338      26.40134893      28.83360917 
H      14.72275205      19.63096818      31.49896759 
H      14.14386970      21.25194847      31.99441590 
H      15.89205818      20.98904521      31.66881974 
H      15.06011966      11.17462501      28.74417356 
H      14.28743751      12.52631380      27.85182069 
H      14.99630218      12.80750044      29.46953169 
H      17.41936374       8.26490964      23.01223559 
H      16.60268917       8.21697723      24.60240207 
H      18.23251392       8.94523681      24.45951858 
