646
Properties=species:S:1:pos:R:3 i=111 optimized=T E=-10058.2561550802 pbc="F F F" jobid=246_80-Ag-50_0-000008-PBE
Ag      21.90432477      20.16510986      20.92244308 
Ag      24.72089692      20.16772716      21.83172646 
Au      20.44933538      22.62922436      20.47250357 
Ag      19.71562189      20.93873062      22.71224380 
Au      20.01032825      18.14282456      21.86125521 
Ag      21.14348205      23.47636236      23.17034272 
Au      20.36508114      21.75483350      25.37052966 
Au      20.67011178      18.92598610      24.62715072 
Ag      20.93325401      16.11103654      23.73841111 
Au      21.89140813      16.07228853      20.95873483 
Au      22.76314763      16.11794827      18.14253009 
Ag      23.07461468      18.87240675      17.23127375 
Au      23.33643991      21.66217006      16.36384113 
Au      22.59299227      23.42523697      18.60153432 
Au      21.84085404      25.14295528      20.88051703 
Ag      23.33735753      22.65936375      21.37330189 
Ag      22.61942435      20.97794776      23.64640994 
Ag      22.86459592      18.17174719      22.80718233 
Ag      23.78489557      18.12451670      20.01310309 
Ag      24.07584416      20.91473275      19.11472831 
Ag      20.91510067      13.96576078      19.02725423 
Au      21.80429913      13.98157301      16.27548850 
Au      22.14072936      16.83435150      15.31066265 
Ag      22.34580860      19.71311933      14.41914522 
Au      22.66221540      22.52580096      13.54676415 
Ag      21.95363520      24.25902183      15.83543491 
Ag      21.14709433      26.05148425      18.15175969 
Au      20.41431177      27.79635771      20.46691299 
Ag      25.37311031      22.43976084      14.45040601 
Au      24.79948355      24.22239414      16.74806326 
Au      23.98030988      25.96528703      19.02764915 
Ag      23.13118709      27.70314477      21.28744795 
Au      22.51234307      26.04058622      23.64958454 
Ag      21.75988134      24.30605749      25.83648765 
Au      20.92064900      22.57882315      28.10536308 
Ag      21.30263892      19.74507797      27.37592447 
Ag      21.56071920      16.96629298      26.50371856 
Au      21.79526246      14.09213540      25.59568139 
Ag      22.79821950      14.01176250      22.82826156 
Ag      23.68984624      14.01631555      20.02043078 
Au      24.55340814      14.03308892      17.20120551 
Ag      24.94634609      16.78162193      16.25776292 
Ag      25.14283545      19.57886603      15.37219206 
Au      23.56275645      18.99467030      25.59877096 
Au      23.74843591      16.23608533      24.72017023 
Ag      24.75031879      16.06444014      21.94016949 
Ag      25.57297784      16.05520464      19.07216966 
Ag      25.97159026      18.85517175      18.17319777 
Au      26.15599776      21.61987574      17.23255528 
Ag      25.52105546      23.46226405      19.51748762 
Au      24.69467396      25.18936258      21.75758571 
Ag      24.08488803      23.58038162      24.15208445 
Ag      23.19703451      21.82941815      26.31578192 
Au      26.17073873      22.74887256      22.27406490 
Ag      25.42176475      21.01919292      24.61198610 
Ag      25.73602439      18.12988827      23.75839118 
Au      26.60574619      18.08144268      20.88627820 
Au      26.95660652      20.94655079      19.97442329 
Au      27.55766662      20.21061770      22.75692662 
Au      27.53768864      15.20744827      21.36910012 
Au      28.51779638      17.41650629      18.63793759 
Au      28.84604029      19.98263323      17.76592492 
Ag      28.33704151      23.23316219      18.80190223 
Ag      27.63797196      25.02534955      20.90153780 
Au      26.65011827      25.02010901      24.28815248 
Ag      25.92675275      23.46042917      26.50736399 
Au      25.54091769      20.14512413      27.41410892 
Ag      25.81853822      17.40273792      26.69755709 
Au      26.81196807      15.33432775      24.02131417 
Au      28.51325097      17.55169026      22.98655413 
Ag      29.29992527      19.35059882      20.66511551 
Ag      28.97412406      22.39444942      21.54337927 
Au      27.94906957      22.41486125      24.50841930 
Au      27.69167104      19.39799115      25.47580455 
Au      25.48833826      13.30399141      22.20629120 
Ag      26.32298951      13.24336740      19.30206631 
Ag      27.25450742      15.09154301      16.97006576 
Au      27.50903037      17.95377296      15.96302774 
Au      27.66524658      20.82719284      14.98249951 
Ag      27.59872382      23.69547947      15.94327458 
Au      26.84771980      25.64217376      18.16879463 
Ag      25.92587977      27.46153599      20.46376110 
Au      25.08832167      27.43445435      23.35225069 
Ag      24.35594490      25.86799822      25.88791627 
Au      23.38773130      24.02642998      28.10889116 
Au      23.25795342      21.12335614      29.01533143 
Ag      23.52055253      18.21721192      28.38335283 
Au      23.70362359      15.36576075      27.42018172 
Au      24.57586066      13.60291727      25.06875443 
Au      24.43618319      11.51170706      15.51804254 
Au      23.95081219      14.78168046      14.36749247 
Au      24.15424583      17.55304543      13.49115393 
Ag      24.42934502      20.32547260      12.57358187 
Au      25.45047422      23.28621527      11.59222064 
Ag      24.16347803      25.10851454      14.07916188 
Au      23.25981419      26.73907505      16.29164205 
Ag      22.56729339      28.52044277      18.53223276 
Ag      22.22801923      30.54057405      20.98080905 
Au      21.13658178      28.55726416      23.32114521 
Au      20.29019465      26.78104663      25.45662614 
Ag      19.53632381      25.14440887      27.72854737 
Au      19.40140199      23.51063183      30.57327794 
Ag      19.21677271      20.46252531      29.25860365 
Ag      19.40166470      17.68411998      28.35730226 
Au      19.67254154      14.92541014      27.41594686 
Au      20.52780927      11.75625410      27.11461955 
Ag      21.04583056      11.91292880      23.77564698 
Ag      21.81978926      11.94240850      20.93817602 
Ag      22.71483350      11.91983048      18.13225612 
Ag      29.65194872      14.47941189      23.41448427 
Au      31.49325645      18.44261607      18.25735834 
Ag      30.51060440      24.95625923      19.97198251 
Au      28.64764241      25.04071919      26.66956804 
Ag      27.79370715      18.51169524      28.68057403 
Au      28.87659609      27.69486410      18.79880480 
Ag      30.20588879      18.73118909      15.12434450 
Ag      28.12528790      12.00120725      21.73733321 
Ag      25.38518565      16.49898436      29.92718178 
Au      25.91569417      26.42574868      28.36281512 
Au      26.55817095      26.69337031      15.23132046 
Au      23.14950746      28.70043368      25.78704768 
Au      21.51019367      18.83090439      30.72469097 
Au      23.97712506      10.84470014      23.27440983 
Ag      26.87163538      15.88247794      13.94014382 
S      29.59337815      22.93298218      26.27627401 
S      29.44312843      18.45176145      26.92963781 
S      30.76844227      16.56803805      22.96974508 
S      31.71239219      19.82702319      20.14301719 
S      30.96116325      23.81294995      22.02341249 
S      27.84495089      27.18536791      27.22749601 
S      30.57873790      26.28123552      17.95657500 
S      31.52653886      17.08196859      16.33513857 
S      29.11715842      12.19854879      23.94204078 
S      26.65766393      18.34742002      30.79487935 
S      27.95988618      26.59126892      22.86273866 
S      29.79756650      22.17033916      17.06239645 
S      28.89294844      15.08914720      19.28467147 
S      26.92455329      15.12585825      26.45710176 
S      26.17839018      22.18705089      28.67599579 
S      24.03932364      25.84109905      29.63706243 
S      27.32623236      29.29695476      19.53470568 
S      29.35404423      20.15785919      13.36164635 
S      27.49407257      11.07671931      19.60493322 
S      24.10464888      14.48010388      29.64887689 
S      22.57771041      20.84375507      31.35515492 
S      24.80521725      29.63112133      24.38461830 
S      28.08573352      25.29037584      14.09482181 
S      27.98473656      13.93163873      14.90072337 
S      24.57151208      11.21276249      25.54067145 
S      20.29093129      16.82546633      30.52907828 
S      21.42284824      28.08527073      27.26994081 
S      25.09296772      28.38565713      15.99703167 
S      26.14266081      17.33840357      12.09212547 
S      23.36888317      10.00708545      21.15659509 
S      20.35974125      10.13679112      25.42148054 
S      20.62387595      13.25622186      28.93458310 
S      18.30753763      21.55757449      31.31319786 
S      20.40403443      25.57507861      30.06424208 
S      20.83586337      30.96066048      22.91217344 
S      23.88990950      30.52180416      19.24951706 
S      24.55705052      25.46591339      11.63184827 
S      26.45800801      21.17690849      11.35710837 
S      24.21774834      12.53165775      13.40774090 
S      24.54995742      10.29755467      17.52420190 
C      31.25352910      23.21390622      25.55687502 
C      30.76381033      19.66815379      27.29574965 
C      31.71821442      17.05868226      24.45804695 
C      32.87063490      18.97960350      21.28222255 
C      32.54642243      22.91562840      21.80053657 
C      28.93361146      27.78071963      28.58549683 
C      32.10703198      27.30292758      18.06441611 
C      33.22926469      17.24114791      15.65394947 
C      30.68732226      11.24352040      23.80736739 
C      27.83424388      17.55166973      31.97030804 
C      29.64804549      26.86593444      23.53153871 
C      31.57899253      22.38912840      17.45402992 
C      30.68979485      14.86232709      19.59590134 
C      28.69216543      14.94231385      26.91529523 
C      27.88483553      22.02480018      29.32857117 
C      24.71670597      24.89414513      31.05643760 
C      28.06942108      30.01839128      21.05119378 
C      30.45125046      21.62692020      13.29481009 
C      28.94997393      11.25278034      18.49646613 
C      25.31403228      13.13571872      29.32656378 
C      23.99091956      20.37948122      32.42453501 
C      26.24173792      30.06889251      25.43331073 
C      29.73808678      26.05718249      14.30542876 
C      29.78152891      14.16045807      14.60394393 
C      26.27886415      10.57764688      25.72763984 
C      18.92582811      17.06341057      31.73885068 
C      20.41337174      29.61499274      27.38880429 
C      24.65559380      29.29669558      14.46297728 
C      25.61243338      16.17357925      10.77358039 
C      22.29545055       8.56662211      21.55000748 
C      21.65353540       8.88532919      25.77925746 
C      19.33150087      12.71150453      30.11312655 
C      19.14660514      21.07518833      32.87338109 
C      19.35145520      26.82858894      30.89455270 
C      21.84504476      31.97627643      24.06326003 
C      23.53699824      31.94725231      18.14876591 
C      25.96613091      26.59122916      11.28473435 
C      26.27966933      20.73998288       9.58370885 
C      25.79037313      12.28367678      12.49867504 
C      23.78914254       8.67231072      17.13749512 
Ag      19.03039844      20.15621308      19.99196996 
Au      16.20081108      20.14504241      19.09671532 
Ag      21.19645225      20.93137438      18.18964514 
Au      20.90334084      18.15608084      19.05787802 
Au      19.73239063      23.46975551      17.72348765 
Au      20.51888985      21.74930134      15.49379619 
Au      20.22913745      18.95052705      16.31871515 
Ag      19.98108957      16.13362212      17.20078718 
Au      19.04418644      16.08889079      19.94405852 
Au      18.17351623      16.04950229      22.81634781 
Au      17.85003366      18.87184041      23.66748670 
Ag      17.59565458      21.69664714      24.52061151 
Ag      18.26583361      23.43903140      22.29549981 
Au      19.04687970      25.16094458      20.06023527 
Au      17.55034597      22.66802368      19.55708935 
Ag      18.29287404      20.95016734      17.25358796 
Ag      18.02192293      18.12884197      18.09918216 
Ag      17.14085363      18.10611525      20.92611084 
Ag      16.83318555      20.90752480      21.79770058 
Au      20.05407390      13.95811150      21.88814174 
Ag      19.08217268      13.97460568      24.71287254 
Au      18.73245625      16.83029559      25.61008169 
Au      18.50089654      19.68755670      26.55615360 
Au      18.20773880      22.53144942      27.32228608 
Ag      18.89717486      24.27758805      25.04011824 
Ag      19.71273767      26.06293082      22.75279611 
Au      15.51815275      22.47494813      26.37144015 
Au      16.08129303      24.28917653      24.14246083 
Ag      16.91080722      25.95308517      21.91034589 
Ag      17.70335000      27.68983792      19.62983209 
Au      18.34742521      26.06114577      17.27300235 
Ag      19.10144692      24.29940327      15.02027342 
Ag      19.88724711      22.54750466      12.77784105 
Ag      19.51739219      19.75686616      13.52161781 
Au      19.30636491      16.97653870      14.46448314 
Au      19.13436664      14.08871131      15.37308211 
Ag      18.12201362      14.00204137      18.08983323 
Au      17.21487411      14.03025916      20.85442203 
Ag      16.33661996      13.99529535      23.75136433 
Ag      15.91878290      16.77051677      24.63399258 
Au      15.73329976      19.60948093      25.48086775 
Au      17.28917477      18.95725552      15.30665852 
Au      17.09713236      16.13605698      16.21456994 
Au      16.11703579      16.05899732      18.97539340 
Au      15.33492646      16.03177281      21.83980111 
Au      14.92960897      18.81779955      22.77706325 
Au      14.75135116      21.67783642      23.63791372 
Au      15.34337385      23.46531919      21.37951079 
Ag      16.20814845      25.19910663      19.19782252 
Au      16.85764621      23.54374010      16.80931798 
Ag      17.70053230      21.80864740      14.57496055 
Ag      14.68766634      22.69526042      18.64819519 
Au      15.46700116      20.98277125      16.31454117 
Au      15.13864104      18.09805730      17.13593371 
Au      14.25434232      18.11245575      20.01703589 
Ag      13.94509209      20.92193022      20.89343065 
Ag      13.31321063      20.19999491      18.15267234 
Au      13.27199864      15.13603334      19.52322800 
Ag      12.49590512      17.34927647      22.23805548 
Au      12.25586747      19.95440002      23.18474949 
Ag      12.54538784      23.21330574      22.02785568 
Ag      13.24406974      24.99637848      19.94565734 
Au      14.28819476      24.95302822      16.77749457 
Ag      15.06076827      23.36996956      14.54029794 
Ag      15.30033023      20.07157541      13.48691284 
Au      15.04719833      17.34214771      14.09720859 
Au      14.05781856      15.24863076      16.87935851 
Au      12.41077173      17.51733417      17.91438061 
Ag      11.61208301      19.33980407      20.26421980 
Ag      11.89500398      22.38514059      19.26754216 
Au      12.92331489      22.36155564      16.34623958 
Au      13.20399801      19.36820527      15.41810663 
Au      15.39597580      13.27225342      18.62917661 
Ag      14.58259946      13.26558728      21.52264057 
Ag      13.60979424      15.09348011      23.82807708 
Ag      13.30995231      17.91711704      25.03348849 
Ag      13.20540111      20.79871952      25.94566983 
Ag      13.27220749      23.74658990      24.94463350 
Ag      14.03634627      25.66940335      22.67326343 
Au      15.00834333      27.45951744      20.44518493 
Ag      15.68248386      27.42966293      17.52106960 
Au      16.52257100      25.83885660      15.05735942 
Ag      17.42202626      24.08557613      12.76877657 
Ag      17.49122699      21.16964217      11.83625895 
Ag      17.35237091      18.17152582      12.53800769 
Au      17.25599555      15.24982158      13.50298619 
Au      16.35778291      13.49438568      15.80504624 
Au      16.58808468      11.53325779      25.48742890 
Au      16.83715981      14.82133371      26.53109830 
Ag      16.64350336      17.60458694      27.38908072 
Ag      16.33936222      20.42266756      28.25661855 
Au      15.37937084      23.37491563      29.31188833 
Ag      16.70975218      25.07087404      26.84964853 
Ag      17.57808586      26.77499477      24.63148278 
Ag      18.29176479      28.55305688      22.37288011 
Ag      18.57360436      30.56515469      19.89893663 
Au      19.68087547      28.53745343      17.62349040 
Ag      20.56883146      26.80615307      15.43814584 
Ag      21.31032287      25.09962711      13.16928913 
Ag      21.63506940      23.39543662      10.46289347 
Au      21.62129799      20.42293341      11.67313654 
Ag      21.43263450      17.69142748      12.60377857 
Ag      21.15329838      14.86709733      13.45083022 
Ag      20.47217514      11.81113009      13.97309390 
Ag      19.88017246      11.87869320      17.14139868 
Au      19.13888380      11.94534313      19.91524025 
Au      18.24848003      12.00343134      22.72189664 
Au      11.04283774      14.36853343      17.49561964 
Ag       9.72616256      18.47141667      22.71933261 
Ag      10.32905626      24.80127872      20.78956791 
Ag      12.61797050      25.15689041      14.28239345 
Ag      13.02155524      18.54211153      12.21063173 
Au      11.87972751      27.53462134      22.09376032 
Au      10.63024890      18.55241044      26.08539848 
Ag      12.81355961      11.97197620      19.25082095 
Ag      15.44719798      16.53550589      11.03026948 
Au      15.16472982      26.62522703      12.56446501 
Ag      14.46210428      26.65888533      25.50240583 
Au      17.70474018      28.64730096      15.24350106 
Au      19.24070105      18.87404972      10.31285552 
Au      16.88698356      10.76230786      17.57288669 
Au      13.84533762      15.79065963      27.10682675 
S      11.47078641      23.05305696      14.47050766 
S      11.39107288      18.56744895      13.98377301 
S      10.16370785      16.50776360      17.92864260 
S       9.24083651      19.87853680      20.82541960 
S       9.86911006      23.74622951      18.68760981 
S      13.28990861      27.42156637      13.77163643 
S      10.19219995      26.06538117      22.85012349 
S       9.58671107      16.99930261      24.63719976 
S      11.71933261      12.15850259      17.07701197 
S      14.24568530      18.43929014      10.14131669 
S      12.92864913      26.61887625      18.00619084 
S      11.24386824      22.13907899      23.88800162 
S      11.90267637      15.01750278      21.59506717 
S      13.93806572      15.13024202      14.43984815 
S      15.03422563      22.25748313      12.27167242 
S      16.97455642      26.00174739      11.20693732 
S      13.48514922      29.12600426      21.46107144 
S      11.57667837      20.00895188      27.66414171 
S      13.46549341      11.06369603      21.39936008 
S      16.73222272      14.50228850      11.26057815 
S      18.34656571      20.91392990       9.51515877 
S      16.17356799      29.73012559      16.69302800 
S      12.78898401      25.39517680      26.72433059 
S      12.98059630      13.94164370      25.91439711 
S      16.25418027      11.11177339      15.31876196 
S      20.22813839      16.75380355      10.62286185 
S      19.29469420      27.97509707      13.62635932 
S      15.86924501      28.55240195      24.92009264 
S      14.53919813      17.39011461      28.70550384 
S      17.62633361       9.99769551      19.67727898 
S      20.68413872      10.06631954      15.62569946 
S      20.24222213      13.10270778      11.95033027 
S      22.66859662      21.37592650       9.63875385 
S      20.52342717      25.49101739      10.82622198 
S      20.06284835      30.93206051      18.03331766 
S      16.92384320      30.51948280      21.64094133 
S      16.26824799      25.56227634      29.26653525 
S      14.41708952      21.25089526      29.63587673 
S      16.65343548      12.58036938      27.58626463 
S      16.55308311      10.38200448      23.43890388 
C       9.76824701      23.42150329      15.04587064 
C      10.13924228      19.86097966      13.65460846 
C       9.19067946      17.01721476      16.46262858 
C       8.07874691      18.95913318      19.74137391 
C       8.30680714      22.80374992      18.88174723 
C      12.15086280      28.02951564      12.45916660 
C       8.65085380      27.06892290      22.75039640 
C       7.82954656      16.98374362      25.18679354 
C      10.19550946      11.13971121      17.24353244 
C      13.11119996      17.74867858       8.86331915 
C      11.28798608      26.81269038      17.20394910 
C       9.41786826      22.29365444      23.74334839 
C      10.09667205      14.80276105      21.32786855 
C      12.16526566      15.09693675      13.98375546 
C      13.50307291      22.28477226      11.24737619 
C      16.22105465      25.13968143       9.76985500 
C      12.78221434      29.93700250      19.97236067 
C      10.43159526      21.44389233      27.74319095 
C      11.99496855      11.26010201      22.48345945 
C      15.51521178      13.16124283      11.56404621 
C      16.97457010      20.47005950       8.38008237 
C      14.80159802      30.33495158      15.63630882 
C      11.17964489      26.24501249      26.48676916 
C      11.16536534      13.94095089      26.17106265 
C      14.51975177      10.54467183      15.16739934 
C      21.50728519      16.71304565       9.30209413 
C      20.28476486      29.49671303      13.33388705 
C      16.26506842      29.30783140      26.55134120 
C      14.98032923      16.34516720      30.15336776 
C      18.72533668       8.59035014      19.24626534 
C      19.38298019       8.83256057      15.21831103 
C      21.56594982      12.48289454      10.83908509 
C      21.79590118      20.90203280       8.09494602 
C      21.56624156      26.75903488      10.00382767 
C      19.15524952      31.96652283      16.81780370 
C      17.28170466      31.93003344      22.76066544 
C      14.84746652      26.69305142      29.53937865 
C      14.65821581      20.87932150      31.41682887 
C      15.04277489      12.25277212      28.39772282 
C      17.37744773       8.77424585      23.74781037 
H      31.67445145      22.22691553      25.32785916 
H      31.87695755      23.71495611      26.30579551 
H      31.19860986      23.80676647      24.63773795 
H      31.43565600      19.70771293      26.42930002 
H      31.32128071      19.31830955      28.17232887 
H      30.35840454      20.66755992      27.48262761 
H      32.14678416      18.05182923      24.27515418 
H      32.52687802      16.33402483      24.60712634 
H      31.07741393      17.09986154      25.34551381 
H      33.85285024      18.90337911      20.80317828 
H      32.49798001      17.98658091      21.55557575 
H      32.95188048      19.59988337      22.18364349 
H      33.35081481      23.64606686      21.66034125 
H      32.50644690      22.22674319      20.95025726 
H      32.73546754      22.34203294      22.71650590 
H      29.91575625      28.00610081      28.15401672 
H      29.03749416      27.02978616      29.37333398 
H      28.49068215      28.69533036      28.99666892 
H      32.04200697      28.10501520      17.32018747 
H      32.96205628      26.65672584      17.83275918 
H      32.23262104      27.73567756      19.06080647 
H      33.23410256      16.78073656      14.65872601 
H      33.92200406      16.70232748      16.31038722 
H      33.53595808      18.28775079      15.57540828 
H      30.44100543      10.17596185      23.76921628 
H      31.29443583      11.44517744      24.69754082 
H      31.25405567      11.51624581      22.91272940 
H      28.57164136      18.30211701      32.27831293 
H      28.35077984      16.70154199      31.51602852 
H      27.27352314      17.21152136      32.84859310 
H      30.20728982      27.46387949      22.80137869 
H      30.16330839      25.91442170      23.69340999 
H      29.55653183      27.41325340      24.47669009 
H      32.16567143      21.77551283      16.76008818 
H      31.79268901      22.07925557      18.48203741 
H      31.81929510      23.45057266      17.31837199 
H      31.21316557      15.00624551      18.64350645 
H      30.84022888      13.84251172      19.97035546 
H      31.04301853      15.59027242      20.33362756 
H      29.04183864      13.97288877      26.53989384 
H      28.75815341      14.96947429      28.01006459 
H      29.29676481      15.75279635      26.49704756 
H      28.21172495      23.01465163      29.67042548 
H      28.57154932      21.66711407      28.55580913 
H      27.86252654      21.32186728      30.17042648 
H      23.85350671      24.48870499      31.59910819 
H      25.27709103      25.57813085      31.70324259 
H      25.35593086      24.07247103      30.71381927 
H      28.96507660      30.58854525      20.78209621 
H      28.31448323      29.24141761      21.78404984 
H      27.31615132      30.69347730      21.47667582 
H      31.39381840      21.33487822      12.81736633 
H      30.64116724      22.02520775      14.29786873 
H      29.94819581      22.39011222      12.68820654 
H      28.61502271      11.02789907      17.47631450 
H      29.72087618      10.53487068      18.79794264 
H      29.35669955      12.26930966      18.51695136 
H      24.75792743      12.27442286      28.93658409 
H      25.79447259      12.86984858      30.27513679 
H      26.06600719      13.44580918      28.59223125 
H      24.55647125      21.29804757      32.62346616 
H      24.64674808      19.64648372      31.94235517 
H      23.59743167      19.97812353      33.36540317 
H      27.04827343      30.38262138      24.75935138 
H      26.57709062      29.21776269      26.03420953 
H      25.95683874      30.90449532      26.08264745 
H      29.76701360      27.00361802      13.75429090 
H      30.46960967      25.36119217      13.87661565 
H      29.97100396      26.22672419      15.36256296 
H      29.98322235      14.06254166      13.53133298 
H      30.31385849      13.37010060      15.14693683 
H      30.13191756      15.13509376      14.95884642 
H      26.24817963       9.48394269      25.66276587 
H      26.62926446      10.87947706      26.72216096 
H      26.95399551      10.98342954      24.96700819 
H      18.22299334      16.23219096      31.60264515 
H      18.40272184      18.01148360      31.57333821 
H      19.33498508      17.03301446      32.75491783 
H      19.50444105      29.36240666      27.94859473 
H      20.14020314      29.98849776      26.39625278 
H      20.98463882      30.37378147      27.93580511 
H      25.53769121      29.85070035      14.12163032 
H      23.85285402      29.99989254      14.71626496 
H      24.31264066      28.61482197      13.67795776 
H      25.02844921      16.72876626      10.03001685 
H      25.00544354      15.35863380      11.18176637 
H      26.51324580      15.76430801      10.30032591 
H      21.87017491       8.21090448      20.60335243 
H      21.48532831       8.84119042      22.23399213 
H      22.90954383       7.77533163      21.99459260 
H      21.70567378       8.20624299      24.91986524 
H      21.35576409       8.32437670      26.67222991 
H      22.62993220       9.35518367      25.93314693 
H      19.68342290      11.79911074      30.60896328 
H      18.38087936      12.52161245      29.60313698 
H      19.21579658      13.51118371      30.85501809 
H      18.79946810      20.07216296      33.14853489 
H      18.85713833      21.78858263      33.65336163 
H      20.23453710      21.06764702      32.75354723 
H      19.68504357      27.81171431      30.54004080 
H      19.50296117      26.76223024      31.97777301 
H      18.29288266      26.68060572      30.65337569 
H      21.81663015      33.01153166      23.70284899 
H      22.87938333      31.62113888      24.10567671 
H      21.39848843      31.92429776      25.06304953 
H      24.15995889      31.83090159      17.25366621 
H      23.81298621      32.87323212      18.66579272 
H      22.47866655      31.97827242      17.86659497 
H      26.25612083      26.47062989      10.23498447 
H      26.81426591      26.37253372      11.94230681 
H      25.62187968      27.61854108      11.45376686 
H      26.96460144      21.35931429       8.99391580 
H      25.24907665      20.87912323       9.23855615 
H      26.56687019      19.68500455       9.49403020 
H      25.73218724      12.85765070      11.56626578 
H      25.87446443      11.21550318      12.26696663 
H      26.64946181      12.61567971      13.09207725 
H      24.48414861       8.09304327      16.51926092 
H      22.82977023       8.78892926      16.62058369 
H      23.64065853       8.15892546      18.09566440 
H       9.27604472      24.05713754      14.30124733 
H       9.77422528      23.91317915      16.02466447 
H       9.22901583      22.46940505      15.12526618 
H       9.54185582      19.54591638      12.79118005 
H      10.60819378      20.83149545      13.46013541 
H       9.49228850      19.93966017      14.53703265 
H       8.35988931      16.31421724      16.33561782 
H       9.80931023      17.05160186      15.55985397 
H       8.79682214      18.02010931      16.66933252 
H       7.94335908      19.54159927      18.82155683 
H       7.11425626      18.86279135      20.25233742 
H       8.46899108      17.96824211      19.48668833 
H       8.14344392      22.23728193      17.95656814 
H       7.47829405      23.50589533      19.02607046 
H       8.36694630      22.10736580      19.72553925 
H      12.58244007      28.93339281      12.01407156 
H      11.19294108      28.27625754      12.93219627 
H      11.99305406      27.27652546      11.68204699 
H       7.80543424      26.39950789      22.94908054 
H       8.53121336      27.52761797      21.76495765 
H       8.69000833      27.84822155      23.52014071 
H       7.26180914      16.37461590      24.47344452 
H       7.41004854      17.99303702      25.22189960 
H       7.77761118      16.52691525      26.18179003 
H       9.53973533      11.34369987      16.38949288 
H       9.66504215      11.35562661      18.17503867 
H      10.49836393      10.08587712      17.23019055 
H      13.70976752      17.44533019       7.99649205 
H      12.40777166      18.53407235       8.56327200 
H      12.55380754      16.88651594       9.23998040 
H      11.43545964      27.26665731      16.21660942 
H      10.68627461      27.47640984      17.83716487 
H      10.78358519      25.84546423      17.11316727 
H       9.16035590      23.34872913      23.89286278 
H       8.95392545      21.67388127      24.51970294 
H       9.08796309      21.95726564      22.75431323 
H       9.91831399      13.79222381      20.94191048 
H       9.72843629      15.54207972      20.60891361 
H       9.60030203      14.93591793      22.29634566 
H      12.09238734      15.17721880      12.89202411 
H      11.61587141      15.91947079      14.44981463 
H      11.75665799      14.13669743      14.32192378 
H      13.57069223      21.48312315      10.50295618 
H      13.43095534      23.26119917      10.75443796 
H      12.63005764      22.13176138      11.89127645 
H      15.64016239      25.85362288       9.17604824 
H      15.58805242      24.30414744      10.08626774 
H      17.05430463      24.75313211       9.16921161 
H      13.56015973      30.60845786      19.58768240 
H      11.90059046      30.51755285      20.26547156 
H      12.52277616      29.19963811      19.20455571 
H      10.92183958      22.19550292      28.37477019 
H       9.48750437      21.13215937      28.20280966 
H      10.25089307      21.87146135      26.75124595 
H      11.23239836      10.52929093      22.19152132 
H      11.58530630      12.27463299      22.42391594 
H      12.31440101      11.06431487      23.51457216 
H      15.02211187      12.92543042      10.61388470 
H      14.77351541      13.45872702      12.31417703 
H      16.06762308      12.28448082      11.92354252 
H      17.38788490      19.97993545       7.49169018 
H      16.48648647      21.40756134       8.08635962 
H      16.24315903      19.81510781       8.86727265 
H      15.17142846      31.14814643      15.00188308 
H      14.02353910      30.71929085      16.30720659 
H      14.38669605      29.53198463      15.01692871 
H      10.40439227      25.62574235      26.95406767 
H      10.94499785      26.37582004      25.42492557 
H      11.21365865      27.22062215      26.98451067 
H      10.75905023      13.11739652      25.57095754 
H      10.71262737      14.88541007      25.84972512 
H      10.95464435      13.76011890      27.23079219 
H      14.17161196      10.83127621      14.16763724 
H      13.87456445      11.00438853      15.92265387 
H      14.50200853       9.45333776      15.26624518 
H      21.01446230      16.63571371       8.32653880 
H      22.12055104      15.81998190       9.47542638 
H      22.14359710      17.60351069       9.33235159 
H      19.66601345      30.22642335      12.79947072 
H      21.14129906      29.21445551      12.70921171 
H      20.64559839      29.92876536      14.27280647 
H      17.06447550      30.04296076      26.39978861 
H      16.59687571      28.55669120      27.27614392 
H      15.37097512      29.81607999      26.93060908 
H      14.06568337      15.91521037      30.57698209 
H      15.45372198      17.00050495      30.89491526 
H      15.67668941      15.54744586      29.87537281 
H      18.11217790       7.77405763      18.84741053 
H      19.21585026       8.26374249      20.17144122 
H      19.48384069       8.88749345      18.51335192 
H      19.70856074       8.27175555      14.33461071 
H      18.42000630       9.31290442      15.01928924 
H      19.27519054       8.14388208      16.06449671 
H      21.67393310      13.19360823      10.01075439 
H      21.26087204      11.50872510      10.43948756 
H      22.52006369      12.37933198      11.36799243 
H      22.16872435      21.54697702       7.29039241 
H      20.71221516      21.01807830       8.19945000 
H      22.03339470      19.85686461       7.86451441 
H      21.44566673      26.66441912       8.91857941 
H      22.62248681      26.64183935      10.27074985 
H      21.20393909      27.74359237      10.32337008 
H      19.68198160      31.91987120      15.85757264 
H      19.16009135      32.99830372      17.18860920 
H      18.12633578      31.61323789      16.69194123 
H      16.96196955      32.85912179      22.27536860 
H      18.34798867      31.98451351      23.00679120 
H      16.69602657      31.77406613      23.67483077 
H      15.19894692      27.71842373      29.37313340 
H      14.51487885      26.58599711      30.57802821 
H      14.02489591      26.46559625      28.85225926 
H      14.37893180      19.82882589      31.56438847 
H      13.99247395      21.51905324      32.00712803 
H      15.69903394      21.03990570      31.71877356 
H      15.02028608      11.19458547      28.68276106 
H      14.20668984      12.48978802      27.73186837 
H      14.98938551      12.87804860      29.29693262 
H      17.58783219       8.33210393      22.76637286 
H      16.67800848       8.13325007      24.29717393 
H      18.30427672       8.90136586      24.31817192 
