646
Properties=species:S:1:pos:R:3 i=84 optimized=T E=-10337.720749183 pbc="F F F" jobid=246_80-Ag-80_1-000006-PBE
Ag      21.82612853      20.19468630      20.91767661 
Ag      24.68579158      20.17317981      21.80789338 
Ag      20.40768566      22.70664496      20.47614192 
Ag      19.67529276      20.98451525      22.76043902 
Au      19.96858921      18.16017874      21.89174749 
Ag      21.10627494      23.50634404      23.18411301 
Ag      20.35066327      21.77065697      25.44236981 
Ag      20.64767001      18.96508473      24.62229934 
Ag      20.89488030      16.11426077      23.75092177 
Au      21.79505604      16.12146991      20.93638219 
Ag      22.68043511      16.13422320      18.08132615 
Ag      23.01579077      18.90747359      17.21906829 
Au      23.23435630      21.70913146      16.36468824 
Au      22.54798885      23.48331332      18.60664868 
Ag      21.81865799      25.20380482      20.89776300 
Au      23.28286428      22.68644207      21.36264862 
Ag      22.55375378      20.98023201      23.63741564 
Ag      22.81013317      18.18032157      22.78239893 
Ag      23.71459894      18.15014479      19.97698570 
Au      24.02870549      20.93062824      19.09825825 
Au      20.80794697      13.98560465      19.02887813 
Ag      21.71326812      14.04656657      16.19803412 
Au      22.04863538      16.90362587      15.26908213 
Ag      22.30028168      19.73104321      14.39791339 
Au      22.57162064      22.51623566      13.60797006 
Ag      21.90505502      24.31660359      15.87003622 
Ag      21.16121851      26.07387397      18.14473120 
Ag      20.46844047      27.77159532      20.46419190 
Ag      25.29875148      22.48007946      14.48075063 
Ag      24.70490590      24.28005468      16.72935233 
Ag      23.94632713      25.95957694      18.98463971 
Ag      23.19450637      27.71901129      21.30749694 
Ag      22.53306116      26.07304405      23.62955653 
Ag      21.75782126      24.30757185      25.87226374 
Ag      20.97484119      22.55859116      28.14220476 
Ag      21.31475272      19.76950627      27.40372275 
Ag      21.56352923      16.94937917      26.47731363 
Ag      21.79806422      14.08915266      25.59494750 
Ag      22.78302514      14.02498132      22.83184103 
Au      23.59502936      14.09925187      19.98447988 
Au      24.44123666      14.07084581      17.08019640 
Ag      24.84735817      16.87168479      16.19170390 
Ag      25.11520654      19.65495407      15.36267956 
Ag      23.52463401      18.96494231      25.57078119 
Au      23.68414425      16.18249880      24.65150176 
Ag      24.71324147      16.12360723      21.86143536 
Au      25.50684403      16.13069461      19.02913669 
Ag      25.93517192      18.88942727      18.12848328 
Ag      26.07280906      21.68016366      17.23886284 
Ag      25.51112737      23.47408621      19.50752450 
Au      24.64909065      25.19243607      21.71217289 
Ag      24.00494515      23.52206887      24.08051804 
Ag      23.14852328      21.78731127      26.31853296 
Ag      26.17673628      22.70945946      22.26404189 
Ag      25.36695980      20.95923281      24.55770694 
Ag      25.67441253      18.14895456      23.72049859 
Ag      26.61550358      18.09606992      20.88339931 
Ag      26.88556786      20.93936766      19.99320018 
Ag      27.50452846      20.16289055      22.71236215 
Ag      27.54820832      15.26412417      21.20152842 
Au      28.38388853      17.38039183      18.62330627 
Ag      28.64364426      20.03363640      17.74082892 
Ag      28.30005914      23.20650083      18.78926009 
Ag      27.62915605      24.96255178      20.90971565 
Au      26.64024997      24.85258750      24.19849188 
Ag      25.82639580      23.28193806      26.37282982 
Ag      25.55886491      20.08164422      27.34975204 
Ag      25.78368237      17.38856801      26.60964497 
Ag      26.66579739      15.41046566      23.89480302 
Ag      28.44490745      17.50531514      23.02336129 
Ag      29.22638118      19.35640101      20.59963186 
Ag      28.94304736      22.34021174      21.53386633 
Au      27.92401923      22.26094576      24.55555840 
Ag      27.66161523      19.37858099      25.44701936 
Au      25.49220642      13.39108934      22.14855431 
Au      26.22434869      13.33717651      19.20512580 
Au      27.11827585      15.26409462      16.91200632 
Ag      27.49109982      18.03483624      15.91133673 
Ag      27.67811173      20.87812613      15.01273111 
Au      27.40938185      23.76482287      15.93709077 
Ag      26.78574587      25.63568608      18.16653545 
Au      25.90151520      27.38411779      20.44072296 
Ag      25.21193820      27.36759582      23.45195332 
Au      24.33917985      25.74762157      25.82462499 
Ag      23.46085914      24.04347297      28.11205212 
Ag      23.34916786      21.11887755      29.08609992 
Ag      23.52402656      18.20758517      28.30493129 
Ag      23.73475832      15.34921115      27.38942562 
Ag      24.66546361      13.52535225      25.03318758 
Au      24.25859344      11.54230506      15.45785962 
Au      23.82977338      14.85891574      14.34389976 
Ag      24.11544932      17.63411903      13.44764303 
Ag      24.39840649      20.43013181      12.60504976 
Ag      25.33739593      23.28240730      11.57709022 
Ag      24.04183851      25.09027349      13.99380182 
Ag      23.28500517      26.79797037      16.27101648 
Ag      22.60920987      28.51315498      18.55068768 
Ag      22.33447405      30.58233620      20.93636453 
Ag      21.13868357      28.57545429      23.21365063 
Ag      20.33837424      26.83065297      25.42832817 
Ag      19.62474356      25.12157652      27.71877920 
Ag      19.31246628      23.52550997      30.46429078 
Au      19.13825333      20.50284986      29.18260192 
Au      19.40279488      17.72758093      28.28726649 
Ag      19.67588797      14.94214348      27.47941030 
Au      20.48841333      11.79039489      27.01752985 
Ag      20.95464994      11.98301705      23.73810572 
Ag      21.78541523      11.99000716      20.92534985 
Ag      22.66559338      12.00063656      18.15156028 
Ag      29.52088376      14.49578342      23.37557780 
Ag      31.19968946      18.54430453      18.21974774 
Ag      30.52835443      24.79696866      20.22834548 
Ag      28.43632817      24.80264798      26.61770635 
Au      27.76496117      18.38352091      28.70611539 
Ag      28.87476963      27.47067385      19.15904897 
Ag      30.18824814      18.85249470      14.98240920 
Ag      28.05836428      12.08795376      21.55622307 
Ag      25.23351935      16.51470225      29.96181455 
Au      25.86749379      26.45548064      28.27648300 
Ag      26.37242016      26.62053119      15.28180467 
Ag      23.11330785      28.47878627      25.56252645 
Ag      21.53369610      19.01004095      30.44953292 
Ag      23.85385013      11.08668434      23.28058938 
Ag      26.75605277      15.86135491      13.83199431 
S      29.47576530      22.62682798      26.46756583 
S      29.31513590      18.20129194      26.95076547 
S      30.74064542      16.53582066      23.02493548 
S      31.61355550      19.93271743      20.14525764 
S      30.91684459      23.67631934      22.31608115 
S      27.81772041      27.09280931      27.09727718 
S      30.68347367      26.16122372      18.25059040 
S      31.42034552      17.20036928      16.23300910 
S      28.81577834      12.24444221      23.84775530 
S      26.44640802      18.48531968      30.66209742 
S      27.92933631      26.53260473      22.92180278 
S      29.74356161      22.18586953      17.02114395 
S      29.24367107      15.17014603      19.31670455 
S      26.59403575      14.98752793      26.37446598 
S      25.80639960      22.21756832      28.66095219 
S      23.97814096      26.00272857      29.59211551 
S      27.32134043      29.22491817      19.71500287 
S      29.33960148      20.29200237      13.26442189 
S      27.52707421      11.30015262      19.33425259 
S      23.96319604      14.50534324      29.71273748 
S      22.47984330      21.03032566      31.41586184 
S      24.78902708      29.67021994      24.24801446 
S      28.12362868      25.31827410      14.17124863 
S      27.88749372      14.01799744      14.98314253 
S      24.41475599      11.14763101      25.65926002 
S      20.38691926      16.86323230      30.38489627 
S      21.31139440      28.28004682      27.18797903 
S      24.96585971      28.54356974      15.72220483 
S      26.07355130      17.26464766      11.97174677 
S      23.17403100       9.96770395      21.23032454 
S      20.25312967      10.16573706      25.33038454 
S      20.72826081      13.16948280      28.90351603 
S      18.20829529      21.53546743      31.23976991 
S      20.47329393      25.57016472      30.02430204 
S      20.91505167      31.03287933      22.82618215 
S      23.93655367      30.52800807      19.14895998 
S      24.59627506      25.56543979      11.59985434 
S      26.39077482      21.14612794      11.30573940 
S      24.09624984      12.59915629      13.35761253 
S      24.42296705      10.35056906      17.47524208 
C      31.19031834      22.88536379      25.87012426 
C      30.69276598      19.31562626      27.42772693 
C      31.67619999      16.89873005      24.55973812 
C      32.77803286      19.01841341      21.23061380 
C      32.50958168      22.78298945      22.14109906 
C      28.95488794      27.68193565      28.41982388 
C      32.17099182      27.22717069      18.47975411 
C      33.14953080      17.42758566      15.63526268 
C      30.36250693      11.24311880      23.91532432 
C      27.55733068      17.88196472      32.00354874 
C      29.57149629      26.80228970      23.69864693 
C      31.54370756      22.38312281      17.34946855 
C      31.03574548      15.26649329      19.69003068 
C      28.21838524      14.48036068      27.07578906 
C      27.33855517      22.23935837      29.68276788 
C      24.62628148      25.16627475      31.09377515 
C      27.87668681      29.96644728      21.29901726 
C      30.43262593      21.76976382      13.28320291 
C      28.97765327      11.61266462      18.25763198 
C      25.16304536      13.13012793      29.49741911 
C      23.82095650      20.53199949      32.56725398 
C      26.11529666      30.14624508      25.42707291 
C      29.73943752      26.08423027      14.57694982 
C      29.69171514      14.23122645      14.74266448 
C      26.08735021      10.41171663      25.84071245 
C      19.02695186      17.07708919      31.60338915 
C      20.40767542      29.87707539      27.04518957 
C      24.54188710      29.14414973      14.03485968 
C      25.49479785      16.04707408      10.71841538 
C      22.05204014       8.62647889      21.80145128 
C      21.51125211       8.88674517      25.72025668 
C      19.49964766      12.55404800      30.11973388 
C      19.05631003      21.03578817      32.79011237 
C      19.49171261      26.93206882      30.76515365 
C      21.93134827      32.05930865      23.96405020 
C      23.51054198      31.88143990      17.98504972 
C      26.09810886      26.57910788      11.29178511 
C      26.12275907      20.62835526       9.56517502 
C      25.70058160      12.32762069      12.51061246 
C      23.62965399       8.72353832      17.18467397 
Ag      18.99687715      20.19635740      20.03877570 
Ag      16.16568161      20.20364498      19.11960844 
Ag      21.12580307      20.96529876      18.19078869 
Ag      20.86309088      18.16665565      19.05411832 
Ag      19.70957017      23.51820593      17.74853130 
Ag      20.42716113      21.76969435      15.49684093 
Au      20.18003013      18.96612343      16.30519265 
Ag      19.93006103      16.15880724      17.20918839 
Ag      18.98694040      16.10923560      19.98359170 
Ag      18.13840663      16.13215450      22.83419290 
Ag      17.80790202      18.92180946      23.70231894 
Ag      17.56371075      21.74142740      24.57531412 
Ag      18.25522557      23.49017910      22.32941026 
Ag      19.04430718      25.21678069      20.04566648 
Au      17.55790060      22.72089844      19.59217835 
Ag      18.28459836      20.98116451      17.30667677 
Ag      18.00985920      18.18933096      18.14825929 
Au      17.10427991      18.14436852      20.94788823 
Ag      16.81460299      20.97480246      21.83538608 
Ag      19.99568678      14.01846835      21.89238828 
Ag      19.04939674      14.03981241      24.74508901 
Ag      18.73626264      16.85846439      25.59398674 
Ag      18.48990494      19.73405710      26.47512534 
Ag      18.19317448      22.57865415      27.33637571 
Ag      18.92079336      24.30198879      25.06921683 
Ag      19.71926881      26.06976303      22.76151184 
Ag      15.48065309      22.48741773      26.39766340 
Ag      16.07892951      24.28595604      24.19249810 
Ag      16.88584440      25.98736924      21.91046431 
Ag      17.73297569      27.72977337      19.66531250 
Ag      18.37435553      26.10244434      17.30772541 
Ag      19.05087874      24.34059522      15.07412306 
Ag      19.79064580      22.57165233      12.79267968 
Ag      19.46490881      19.78182588      13.52494055 
Ag      19.23378017      16.98026941      14.44250463 
Au      18.97931548      14.14937413      15.36525770 
Ag      18.02207103      14.02359102      18.10818177 
Ag      17.21636908      14.07242021      20.91879604 
Au      16.31622807      14.12933349      23.79213317 
Ag      15.92916147      16.84405521      24.68494590 
Ag      15.71243655      19.65614967      25.52058043 
Ag      17.28577961      18.97647265      15.37269672 
Au      17.09933253      16.19027340      16.29092664 
Ag      16.10393344      16.08676604      19.05361503 
Ag      15.32772548      16.09419127      21.87419009 
Ag      14.91028988      18.89320413      22.75290697 
Ag      14.75042783      21.68457077      23.69647234 
Ag      15.33682214      23.54065542      21.45670356 
Ag      16.21779932      25.22271780      19.19912472 
Ag      16.82508931      23.53035055      16.85940000 
Ag      17.64822374      21.81652897      14.63287812 
Ag      14.69540094      22.75109620      18.70911392 
Ag      15.42815613      21.00527899      16.37796227 
Ag      15.14870842      18.16448581      17.21502308 
Ag      14.25743572      18.12549222      20.05441868 
Au      13.95145876      20.99270036      20.96701592 
Au      13.31934032      20.19999628      18.20594630 
Ag      13.32806533      15.28976569      19.73965669 
Ag      12.44007238      17.38252018      22.22320148 
Ag      12.19859586      20.04259330      23.18971449 
Ag      12.55501475      23.27859977      22.13816710 
Ag      13.24396204      25.04118485      20.05270977 
Au      14.22559142      24.91115581      16.80778305 
Ag      14.96676234      23.35563455      14.59634131 
Ag      15.25917565      20.07535875      13.63432609 
Ag      15.06433165      17.35676904      14.35087835 
Ag      14.14707901      15.42399767      17.03861467 
Ag      12.36669403      17.52043972      17.98273963 
Ag      11.60783362      19.42975269      20.34231351 
Ag      11.92333257      22.39934667      19.42817854 
Ag      12.85492785      22.37375737      16.43622780 
Ag      13.13777358      19.35721427      15.50245256 
Ag      15.32463120      13.36425680      18.77520031 
Au      14.59740949      13.32149530      21.66937949 
Ag      13.54366372      15.16329322      23.90444284 
Au      13.33970788      18.01247336      24.93629157 
Ag      13.16201392      20.81099296      25.97493181 
Ag      13.27331084      23.74052876      24.95911505 
Ag      14.05465784      25.74183253      22.78558799 
Ag      14.95560140      27.48329485      20.44002492 
Au      15.82298351      27.47001417      17.58143557 
Au      16.50846738      25.80229604      15.15691701 
Ag      17.32123614      24.08802566      12.84624562 
Ag      17.41749588      21.13670845      11.87630926 
Ag      17.26832406      18.20315482      12.61994423 
Ag      17.12514990      15.33398008      13.50363791 
Ag      16.14234377      13.52480687      15.87914871 
Au      16.55618315      11.68628997      25.63153023 
Ag      16.85345298      14.84537045      26.55686544 
Ag      16.69413727      17.63444629      27.42182394 
Ag      16.34361387      20.45121782      28.27179190 
Ag      15.58059845      23.37296217      29.30366623 
Ag      16.75515831      25.11409836      26.87418937 
Ag      17.60034556      26.77107770      24.60820758 
Ag      18.30738294      28.52258493      22.37695432 
Ag      18.56162866      30.58940485      19.99257694 
Ag      19.77861218      28.58088346      17.70433951 
Ag      20.52452019      26.86860066      15.45409562 
Au      21.20351427      25.06642952      13.24424632 
Ag      21.57202535      23.58600414      10.50276000 
Ag      21.58446398      20.54187424      11.67664698 
Ag      21.35627108      17.74908227      12.57014444 
Ag      21.04041012      14.92107135      13.43187100 
Ag      20.33066212      11.86283111      13.95411171 
Ag      19.86062802      11.98446490      17.15324206 
Ag      19.03436075      11.96931684      19.97638759 
Au      18.19732346      12.06441704      22.77025130 
Ag      11.29346472      14.54604865      17.66285337 
Au       9.57530676      18.52033290      22.84614997 
Ag      10.34280176      24.83702670      20.78645079 
Ag      12.34529156      24.77647042      14.37049751 
Ag      13.03759834      18.38420353      12.42528701 
Au      11.93453725      27.63300083      22.04949929 
Ag      10.73725871      18.78437111      26.05112030 
Ag      12.76127421      12.03582789      19.30701724 
Ag      15.47139593      16.54102106      11.01250360 
Ag      14.94575981      26.23168509      12.69497151 
Au      14.39853642      26.73916307      25.69825091 
Ag      17.74738004      28.53778860      15.34793116 
Ag      19.24382464      19.01544592      10.45376505 
Ag      16.95484450      11.05223130      17.64527525 
Ag      13.95133005      15.91427668      26.97096857 
S      11.27709560      22.61940022      14.50557349 
S      11.39899843      18.14432943      14.16882355 
S      10.06908645      16.55149942      18.17952256 
S       9.23119516      19.92389427      20.99188714 
S       9.93443385      23.71715419      18.69762983 
S      12.96331900      27.03751676      13.81873089 
S      10.25313076      26.15454378      22.81419281 
S       9.60454779      17.10174416      24.72939343 
S      11.98800538      12.32333325      17.04444699 
S      14.24738186      18.50700293      10.34421593 
S      12.95644139      26.61668667      18.08409717 
S      11.19656952      22.24540121      23.98823262 
S      11.76866049      15.02492904      21.74763186 
S      14.17671078      14.98103615      14.56969136 
S      14.92696503      22.20060621      12.34504257 
S      16.75588423      25.83121507      11.16356946 
S      13.50484466      29.26407369      21.43488522 
S      11.48215443      20.29991599      27.75050533 
S      13.44630344      11.16642963      21.43872962 
S      16.74474230      14.52306253      11.18985772 
S      18.26256018      21.04106588       9.54309844 
S      16.01250896      29.71563674      16.63267170 
S      12.84185754      25.35148070      26.81325369 
S      12.99417146      13.91366522      25.98221291 
S      16.35412906      11.12830684      15.29357385 
S      20.46975519      16.92512346      10.40941779 
S      19.58355478      28.43394618      13.76158405 
S      15.81326536      28.48202510      24.97102794 
S      14.63168789      17.40117147      28.76701117 
S      17.55896500       9.98744604      19.73754458 
S      20.60771972      10.15990959      15.63772075 
S      20.08966576      13.17207977      11.95163290 
S      22.58125305      21.58314100       9.63088478 
S      20.43887052      25.66440305      10.99830415 
S      19.96563341      31.03575863      18.09786319 
S      16.94977322      30.52796230      21.76686042 
S      16.42261219      25.62581833      29.30001500 
S      14.41340530      21.30019217      29.60194760 
S      16.68128281      12.65155484      27.77460921 
S      16.42629754      10.53793303      23.57631329 
C       9.56751979      22.92735341      15.10123805 
C      10.01751712      19.26957274      13.72445500 
C       9.04762086      16.93641635      16.70390514 
C       8.03501693      19.01662133      19.93681517 
C       8.37923268      22.76293237      18.89366083 
C      11.84326637      27.53932893      12.44331743 
C       8.70812611      27.15340459      22.72301994 
C       7.86964627      17.12873141      25.34853548 
C      10.45136751      11.30746946      16.95497167 
C      13.09247711      17.90313233       9.03880871 
C      11.27986586      26.87439176      17.37665575 
C       9.38939584      22.54874843      23.80691043 
C       9.94122888      14.88391230      21.58012204 
C      12.53377267      14.50736026      13.88904130 
C      13.38060586      22.18230625      11.34512199 
C      16.05595603      24.85430997       9.77371999 
C      12.82238454      30.03622622      19.91371545 
C      10.35943820      21.75242384      27.70045412 
C      12.02654356      11.35443013      22.58557494 
C      15.54450593      13.15690008      11.45493389 
C      16.90738427      20.52458873       8.41534469 
C      14.60716973      30.02137518      15.49564490 
C      11.20366651      26.14486548      26.57430582 
C      11.18634906      14.00296955      26.29031136 
C      14.69786522      10.35016268      15.13830676 
C      21.78839402      17.26303734       9.16987226 
C      20.45364816      30.03933553      13.98339280 
C      16.27319547      29.31536320      26.54573932 
C      15.11103263      16.24834432      30.12033312 
C      18.65125119       8.60748912      19.19918734 
C      19.33234069       8.88628028      15.27900199 
C      21.40665107      12.61829211      10.79932186 
C      21.69840381      21.20974680       8.06248100 
C      21.47645306      27.05730087      10.41701895 
C      18.93633038      32.06777151      16.97578817 
C      17.35800754      31.91346554      22.90035121 
C      14.96300929      26.68858697      29.64887908 
C      14.64737808      20.79013806      31.34934652 
C      15.06569972      12.33188766      28.58526281 
C      17.16022828       8.88316384      23.85540200 
H      31.62659885      21.90234943      25.65458146 
H      31.76679838      23.37359350      26.66432459 
H      31.20225408      23.49513733      24.96022969 
H      31.42677827      19.28813895      26.61275643 
H      31.15674639      18.94227587      28.34698312 
H      30.33734404      20.34263487      27.56479920 
H      32.09579871      17.90807872      24.46748135 
H      32.49407163      16.17525466      24.65286492 
H      31.03205255      16.85270330      25.44382035 
H      33.72763558      18.88202589      20.70146768 
H      32.36877009      18.04776642      21.53086928 
H      32.94818840      19.62876796      22.12628183 
H      33.32445200      23.51347413      22.08721710 
H      32.51009662      22.14560750      21.25031929 
H      32.64320213      22.15734344      23.03233259 
H      29.93438069      27.86587601      27.96265946 
H      29.05702592      26.94640018      29.22250993 
H      28.55965362      28.61981223      28.82675511 
H      32.11887111      28.05419251      17.76217566 
H      33.06198119      26.62263659      18.27394091 
H      32.23138349      27.62889775      19.49508915 
H      33.21396608      17.05392849      14.60672292 
H      33.81494160      16.83873788      16.27732814 
H      33.45663854      18.47693041      15.66113907 
H      30.08770579      10.18288932      23.86807385 
H      30.86778025      11.44547239      24.86682006 
H      31.03637454      11.48061700      23.08736300 
H      28.30649893      18.65453629      32.21059048 
H      28.05592248      16.94958501      31.72438030 
H      26.94230947      17.71839971      32.89645712 
H      30.13290783      27.49291522      23.05729324 
H      30.11917346      25.85764521      23.78255910 
H      29.41568381      27.24991060      24.68706587 
H      32.09826179      21.84651516      16.57024593 
H      31.80596878      21.97601202      18.33192525 
H      31.77563124      23.45412692      17.30847151 
H      31.56758368      15.42866300      18.74446627 
H      31.33876643      14.30930439      20.13240120 
H      31.25847175      16.07326555      20.39480383 
H      28.56170360      13.58849580      26.53865258 
H      28.08779365      14.25754686      28.14116190 
H      28.93897839      15.29720007      26.95783569 
H      27.42441614      23.22312672      30.15854930 
H      28.20953662      22.05826277      29.04339925 
H      27.25608208      21.45192212      30.44024988 
H      23.75043571      24.83066462      31.66359641 
H      25.20467437      25.88044374      31.68975415 
H      25.24190502      24.29799205      30.83669864 
H      28.74205293      30.60774571      21.09636134 
H      28.13694132      29.19316647      22.03027492 
H      27.04706080      30.56871022      21.68962429 
H      31.40608251      21.50328601      12.85711886 
H      30.55720359      22.16106699      14.29948597 
H      29.95384754      22.53643263      12.66145328 
H      28.64307334      11.53619532      17.21572547 
H      29.72932844      10.84283119      18.46699370 
H      29.39312644      12.61156714      18.43415251 
H      24.58794522      12.24634729      29.19427747 
H      25.66591656      12.93565060      30.45097232 
H      25.89959256      13.35682195      28.71929581 
H      24.34351232      21.44191612      32.88643073 
H      24.53541902      19.85846654      32.08173498 
H      23.38079271      20.04010356      33.44195004 
H      26.96352214      30.52365982      24.84346296 
H      26.44524082      29.29405799      26.03089276 
H      25.73995986      30.94193598      26.08048389 
H      29.82865711      27.02260180      14.01731529 
H      30.52842227      25.39156790      14.25994623 
H      29.84020689      26.27670102      15.65048629 
H      29.93328569      13.93593448      13.71482211 
H      30.20843656      13.56907704      15.44744483 
H      30.01169002      15.26277016      14.92093008 
H      26.01995076       9.33137521      25.66911891 
H      26.42567770      10.59588565      26.86755987 
H      26.80532176      10.85453529      25.14125962 
H      18.31447914      16.25420028      31.47063270 
H      18.51061587      18.03255465      31.46194304 
H      19.45589576      17.03075907      32.61137985 
H      19.47685275      29.79340130      27.61875226 
H      20.17114281      30.11880153      26.00289476 
H      21.02784859      30.67176110      27.47583383 
H      25.43985718      29.57337952      13.57590281 
H      23.77955233      29.92540693      14.13910160 
H      24.15178125      28.33868885      13.40229799 
H      25.02675480      16.60508749       9.89853350 
H      24.76618927      15.34649254      11.14017121 
H      26.36007295      15.49578517      10.33256166 
H      21.58939899       8.17446576      20.91578569 
H      21.26713100       9.00785628      22.46396212 
H      22.64392809       7.86838319      22.32716264 
H      21.52707214       8.17356095      24.88757084 
H      21.20612733       8.37046151      26.63720563 
H      22.50402966       9.33311359      25.84568427 
H      19.85512817      11.60240994      30.53058405 
H      18.51326151      12.42195446      29.66156539 
H      19.44780246      13.30211459      30.92028342 
H      18.73940059      20.01846936      33.04766000 
H      18.74053753      21.72679842      33.58052044 
H      20.14529782      21.06817812      32.67283381 
H      19.86530565      27.86854022      30.33343112 
H      19.65489886      26.93552135      31.84878261 
H      18.42402125      26.81701549      30.54687794 
H      22.04703601      33.05457008      23.52043324 
H      22.91392435      31.60434983      24.13292942 
H      21.39691698      32.14586080      24.91732318 
H      24.02834221      31.67137480      17.04135980 
H      23.87430337      32.82796122      18.40093949 
H      22.42970017      31.93886536      17.81513920 
H      26.39041224      26.45386735      10.24307128 
H      26.92215467      26.28076636      11.94872160 
H      25.84586912      27.63024992      11.47506447 
H      26.84742998      21.15308370       8.93203019 
H      25.10331024      20.85102540       9.23127312 
H      26.30762594      19.54834602       9.51729488 
H      25.71321709      12.94688238      11.60595698 
H      25.75463075      11.26881942      12.23171667 
H      26.54249296      12.59404476      13.15764793 
H      24.30898740       8.09860414      16.59406001 
H      22.66952990       8.83330634      16.66816415 
H      23.47743407       8.27096136      18.17242283 
H       9.00411672      23.44606885      14.31756572 
H       9.56971276      23.52256894      16.02065750 
H       9.09915244      21.95559307      15.30037502 
H       9.51605059      18.88351006      12.83008428 
H      10.37889109      20.28849021      13.54694486 
H       9.30829659      19.27798997      14.56130874 
H       8.25044785      16.18969959      16.61677120 
H       9.65725959      16.94707290      15.79375472 
H       8.60068247      17.92716524      16.85209872 
H       7.88257691      19.61725734      19.03152989 
H       7.08506622      18.91935578      20.47337341 
H       8.42397001      18.03082894      19.65951621 
H       8.28756637      22.08718510      18.03452816 
H       7.53480320      23.46141267      18.89600124 
H       8.38395026      22.17597405      19.81789363 
H      12.24125199      28.45428245      11.98915713 
H      10.85079586      27.74433724      12.86121673 
H      11.76192320      26.76066556      11.67964328 
H       7.86526738      26.48593689      22.93830278 
H       8.57709082      27.60336201      21.73496352 
H       8.75648609      27.94030000      23.48445285 
H       7.23892096      16.56370887      24.65284518 
H       7.49134790      18.15030255      25.44429071 
H       7.86098443      16.64022251      26.33023485 
H       9.93706246      11.54334159      16.01607403 
H       9.78238472      11.50797122      17.79650270 
H      10.73579912      10.24881867      16.95812877 
H      13.67433661      17.68919975       8.13472048 
H      12.36719332      18.69679141       8.82524893 
H      12.56207728      16.99982984       9.35313726 
H      11.39934206      27.30578574      16.37538594 
H      10.74364213      27.57320398      18.03036682 
H      10.73006804      25.92895840      17.32259709 
H       9.21152871      23.62824703      23.86740463 
H       8.86825068      22.03102091      24.62082893 
H       9.04322744      22.15807121      22.84368921 
H       9.69771558      13.83782052      21.35906192 
H       9.58690749      15.52518720      20.76587710 
H       9.48307434      15.18767824      22.52807532 
H      12.64252300      14.32205974      12.81390931 
H      11.81715176      15.31977296      14.05276394 
H      12.20109481      13.59663704      14.40023085 
H      13.45117903      21.35756523      10.62652695 
H      13.29511817      23.14097115      10.82015016 
H      12.51586398      22.04288210      12.00335023 
H      15.40332512      25.49600594       9.17153421 
H      15.49905887      23.98333316      10.13533288 
H      16.89741518      24.50670273       9.16147209 
H      13.59889065      30.71236579      19.53422340 
H      11.92389009      30.60874946      20.16727796 
H      12.59658409      29.28373212      19.14982990 
H      10.79096010      22.51662112      28.35910670 
H       9.37050471      21.46395388      28.07320893 
H      10.27702311      22.16093467      26.68717818 
H      11.28644366      10.58033523      22.35306258 
H      11.57903617      12.35090824      22.49833312 
H      12.40417578      11.21775230      23.60638664 
H      14.98693834      12.97958973      10.52883077 
H      14.85513417      13.38118543      12.27616331 
H      16.12512728      12.26282724      11.71387380 
H      17.34069481      20.03995306       7.53328894 
H      16.36907395      21.42879164       8.10631605 
H      16.20900236      19.84127125       8.91160449 
H      14.87981752      30.84892878      14.83009762 
H      13.73744359      30.30678982      16.09927182 
H      14.35963525      29.13337891      14.90409824 
H      10.45828775      25.47508852      27.02076503 
H      10.97773948      26.28471205      25.51141718 
H      11.18847704      27.10839932      27.09525958 
H      10.71287192      13.18245134      25.73760694 
H      10.76547097      14.95433162      25.94774081 
H      10.99639646      13.87651222      27.36204568 
H      14.36665120      10.47908505      14.10072266 
H      13.96750550      10.81678262      15.80851387 
H      14.78076702       9.28093320      15.36293818 
H      21.33407566      17.30773914       8.17350100 
H      22.50364411      16.43258359       9.20511112 
H      22.31270592      18.20201937       9.37976610 
H      19.80579077      30.84834336      13.62674534 
H      21.36598014      30.01322393      13.37528979 
H      20.72294026      30.21582970      15.03087129 
H      17.05023263      30.05187616      26.30692741 
H      16.66044687      28.60158985      27.28080641 
H      15.39301934      29.82866681      26.94862688 
H      14.20167084      15.80093951      30.53801734 
H      15.62041969      16.82955649      30.89818388 
H      15.77959506      15.45770183      29.76297081 
H      18.04131011       7.84316151      18.70413157 
H      19.11507367       8.17694013      20.09484447 
H      19.43607435       8.95394156      18.51751550 
H      19.63537205       8.34792813      14.37375213 
H      18.34513462       9.33866484      15.13352076 
H      19.29585039       8.18617414      16.12178065 
H      21.51141273      13.38646171      10.02362831 
H      21.09396669      11.67471380      10.33724194 
H      22.36202635      12.47700216      11.31647919 
H      21.97988596      21.96448673       7.31954609 
H      20.61264392      21.21250749       8.20973687 
H      22.02047982      20.22101840       7.71493009 
H      21.29928106      27.18212084       9.34203450 
H      22.54000334      26.87076417      10.60353574 
H      21.14396126      27.95413278      10.95410816 
H      19.46539519      32.16907933      16.02114446 
H      18.81871775      33.05689233      17.43255991 
H      17.95408536      31.61450509      16.80511598 
H      17.03160584      32.85298576      22.43999762 
H      18.43329070      31.95352143      23.10806756 
H      16.80006495      31.75126704      23.83049356 
H      15.24243114      27.73083953      29.45491928 
H      14.69748601      26.57430187      30.70594162 
H      14.11287985      26.41392217      29.01541840 
H      14.36425105      19.73279804      31.41823554 
H      13.98157981      21.38900618      31.98122850 
H      15.68645426      20.92205524      31.67101554 
H      14.99206341      11.25958540      28.79826630 
H      14.23377587      12.65291456      27.94862811 
H      15.05152308      12.89291001      29.52738690 
H      17.31754591       8.43760327      22.86540468 
H      16.44204813       8.27999886      24.42300162 
H      18.10927004       8.95379191      24.39828109 
