646
Properties=species:S:1:pos:R:3 i=112 optimized=T E=-9963.7832688438 pbc="F F F" jobid=246_80-Ag-39_8-000001-PBE
Au      21.84959623      20.21674591      20.89469424 
Au      24.73753160      20.20681641      21.81886059 
Ag      20.44890275      22.73408388      20.44183622 
Au      19.72837655      20.98291570      22.72602252 
Ag      19.96819607      18.19976112      21.83119865 
Au      21.15966944      23.53072744      23.20250990 
Ag      20.38173708      21.78529273      25.44269885 
Ag      20.69128292      18.99213967      24.61301184 
Au      20.91088488      16.23765546      23.68087773 
Ag      21.83055167      16.15299157      20.91491831 
Au      22.65511047      16.13129071      18.07471559 
Ag      23.01636956      18.92858970      17.22508657 
Au      23.29476162      21.77595199      16.30821214 
Au      22.64629019      23.51387165      18.59500184 
Au      21.84256537      25.21774678      20.86018468 
Au      23.35463811      22.74235907      21.34357270 
Ag      22.60471036      21.01892201      23.63060341 
Au      22.89544240      18.20625857      22.81547816 
Au      23.74921265      18.18286287      19.98056402 
Ag      24.04456814      20.96547207      19.08041468 
Au      20.85571750      13.98253061      18.97810004 
Ag      21.79017583      14.01508369      16.16412887 
Au      22.11352660      16.89863006      15.27361414 
Au      22.33651636      19.76895326      14.34526859 
Ag      22.61030173      22.56177902      13.51531445 
Au      21.94798711      24.37616658      15.84208679 
Au      21.16179445      26.14294683      18.10697988 
Au      20.43190979      27.81247605      20.39762813 
Ag      25.36258918      22.54147020      14.42575235 
Ag      24.80040650      24.31248470      16.71572372 
Ag      24.01882320      26.02564014      19.00177609 
Au      23.19322238      27.77142610      21.26218124 
Au      22.56797697      26.12760420      23.68289040 
Ag      21.80520961      24.39217912      25.88019455 
Au      21.03779619      22.61414327      28.11054889 
Au      21.36674336      19.79329076      27.39432700 
Au      21.59835593      17.00903861      26.51526167 
Au      21.78790282      14.21113949      25.58432024 
Au      22.75507768      14.09271424      22.79832745 
Au      23.62023833      14.05431150      20.01281868 
Au      24.50271984      14.09099205      17.16795090 
Au      24.93347394      16.84931363      16.22610592 
Au      25.09298777      19.66585096      15.39369073 
Au      23.58228907      19.01479106      25.58486108 
Ag      23.75514606      16.20215912      24.69449794 
Au      24.79213483      16.10656870      21.91522651 
Au      25.50403174      16.10091680      19.08775991 
Ag      25.96704397      18.86636965      18.13007875 
Ag      26.10344720      21.68483233      17.22152502 
Ag      25.51494875      23.49958143      19.50192519 
Ag      24.67890099      25.26344551      21.75943932 
Au      24.02633356      23.59325720      24.12516754 
Ag      23.20046390      21.85431240      26.30735546 
Au      26.19229762      22.73608507      22.27996034 
Ag      25.46319951      21.02258468      24.60723388 
Au      25.77767400      18.16945948      23.80111729 
Ag      26.66427046      18.10448342      20.89807060 
Au      26.91262933      20.93630077      19.95621501 
Ag      27.56376918      20.18711816      22.75941090 
Ag      27.51318965      15.16206937      21.36153087 
Au      28.50501972      17.39814753      18.64284468 
Au      28.74470974      19.96147983      17.71325429 
Au      28.30569839      23.27112391      18.81861139 
Ag      27.65067973      24.97424963      20.94371538 
Au      26.64020792      25.00551420      24.17630558 
Au      25.90312741      23.43952780      26.34633215 
Au      25.64241135      20.02778546      27.41878605 
Au      25.89324003      17.37885047      26.73684664 
Au      26.63948951      15.32105063      24.02109716 
Ag      28.44521970      17.47811268      23.09677945 
Au      29.25853885      19.40969782      20.64608653 
Ag      28.96838795      22.33412385      21.50018780 
Ag      28.04323268      22.42328580      24.47326187 
Ag      27.76645785      19.39859791      25.49047715 
Au      25.43495330      13.27614293      22.22431058 
Ag      26.25057998      13.26723071      19.31621704 
Ag      27.24202877      15.19403387      17.05867783 
Au      27.54883059      17.98398563      15.89878090 
Au      27.59152010      20.86038443      14.92868021 
Ag      27.58535190      23.75612342      15.96861895 
Au      26.80422089      25.71084988      18.21800263 
Ag      25.94992064      27.52231521      20.48223107 
Au      25.11546467      27.53248931      23.39028872 
Ag      24.43080030      25.91514402      25.85978258 
Ag      23.49687329      24.10591418      28.11688675 
Ag      23.36511993      21.11962231      29.05775156 
Au      23.53582562      18.18186934      28.38845840 
Ag      23.68505129      15.30556151      27.45441029 
Au      24.48603756      13.50883901      25.08847078 
Ag      24.18941968      11.65591535      15.43155239 
Au      24.04921992      14.81826605      14.37072264 
Au      24.17121606      17.61604863      13.42921674 
Ag      24.44345059      20.40617703      12.58377008 
Au      25.57211365      23.16305200      11.51403110 
Au      24.04410219      25.11008957      14.00721394 
Au      23.34326045      26.86236985      16.22819212 
Au      22.57193499      28.53153296      18.49038042 
Au      22.61767431      30.74235301      20.87074923 
Au      21.17481307      28.62437629      23.24512952 
Au      20.30690121      26.94300191      25.48289977 
Au      19.60790217      25.12997964      27.65110295 
Au      19.45463208      23.60585985      30.55410492 
Ag      19.33313970      20.51370958      29.30029822 
Ag      19.43011277      17.71931753      28.38592384 
Au      19.66204479      14.93981912      27.42982239 
Ag      20.29852000      11.91028433      26.95335719 
Ag      21.10826151      11.98594496      23.82217216 
Ag      21.78136709      11.96991040      20.96116048 
Ag      22.68900051      11.99560505      18.13220584 
Au      29.60880147      14.30143416      23.40854698 
Au      31.42475412      18.34695390      18.12621849 
Ag      30.56297024      24.79317318      20.13995354 
Ag      28.51560925      24.87386882      26.56496076 
Au      28.00674782      18.47803274      28.73765548 
Au      28.96026466      27.63409997      18.90298021 
Au      30.25510336      18.72298540      14.80875568 
Ag      27.93915338      11.89735053      21.59277355 
Au      25.30208386      16.56011892      30.11894565 
Au      25.97329396      26.49138448      28.31790434 
Ag      26.47890980      26.55280522      15.32631106 
Ag      23.20376994      28.66967931      25.55069238 
Au      21.63578480      19.00577596      30.75431128 
Au      23.92384740      10.74841192      23.31384165 
Au      27.08428867      15.71644661      13.85893142 
S      29.63630222      22.74868796      26.36448592 
S      29.55485329      18.41630848      26.96966642 
S      30.67163499      16.34915439      22.97620559 
S      31.67974788      19.62018223      20.08493981 
S      30.98102827      23.62766631      22.20478918 
S      27.90689705      27.14992621      27.12898346 
S      30.66689014      26.17377582      18.15721691 
S      31.36675544      17.09855065      16.12459892 
S      28.81485242      12.12961988      23.84620639 
S      26.63052237      18.45042185      30.66156200 
S      27.94424071      26.60038419      22.84337564 
S      29.73171788      22.15422286      17.12836776 
S      28.94832956      15.08170347      19.30290401 
S      26.77413881      15.09140754      26.47882204 
S      25.93598479      22.21618101      28.50316088 
S      24.09448182      26.00248440      29.63530216 
S      27.43708487      29.30170245      19.54880351 
S      29.35336140      20.30102987      13.31764295 
S      27.41827983      11.08376254      19.38951829 
S      24.07232060      14.58231496      29.81687226 
S      22.66852557      21.02269701      31.44808097 
S      24.99640468      29.79410238      24.31508123 
S      28.19394738      25.28358479      14.11956901 
S      27.93115481      13.87125815      15.06869673 
S      24.47309299      11.09853085      25.59041562 
S      20.42511250      16.99386163      30.54281263 
S      21.43396473      28.30717412      27.17949499 
S      25.07327499      28.51818363      15.72920254 
S      26.29589045      17.28249069      12.26923924 
S      23.28259807       9.99996261      21.17395985 
S      20.14766786      10.20001610      25.25706393 
S      20.56394796      13.26598197      28.95140711 
S      18.40860556      21.65610188      31.34127523 
S      20.44105342      25.65405520      29.93859004 
S      21.21069570      31.03567588      22.73038873 
S      23.95370431      30.51410395      18.94915711 
S      24.71763724      25.34738222      11.64214675 
S      26.45038749      21.01039939      11.21316776 
S      24.14965959      12.65095769      13.23830914 
S      24.36214341      10.31436191      17.41352212 
C      31.34715805      23.07373318      25.78588463 
C      30.90822835      19.57133854      27.40318256 
C      31.67695425      16.72436839      24.46442484 
C      32.76572956      18.66865079      21.21057519 
C      32.52186161      22.65112154      22.00246765 
C      29.05333683      27.71646617      28.45331098 
C      32.19439904      27.19174933      18.30059634 
C      33.09222610      17.11643327      15.48895973 
C      30.32386387      11.07363067      23.84847845 
C      27.71670589      17.84594092      32.01714993 
C      29.63168777      26.77237995      23.54976772 
C      31.50026939      22.30785792      17.59117357 
C      30.75825888      14.83897261      19.50688392 
C      28.52311782      14.95794333      27.01169688 
C      27.54070469      22.26365797      29.39616054 
C      24.76517778      25.09010035      31.08397707 
C      28.15263892      30.03674340      21.07273975 
C      30.47826148      21.74651528      13.40511949 
C      28.91535621      11.35099518      18.35879587 
C      25.35247975      13.27949119      29.61711766 
C      24.06598732      20.52374417      32.52639856 
C      26.37870977      30.13788325      25.46753028 
C      29.80322068      26.09868120      14.46044053 
C      29.75319762      13.89650216      14.86689743 
C      26.15939286      10.42691779      25.83750214 
C      19.08708436      17.17870504      31.79074139 
C      20.49249066      29.88504286      27.15605199 
C      24.67973476      29.12945606      14.04183126 
C      25.84708164      16.23134654      10.83111051 
C      22.18088801       8.57521534      21.54597164 
C      21.40087467       8.92748576      25.69450113 
C      19.27137763      12.77079675      30.15090785 
C      19.24684136      21.24337029      32.92166539 
C      19.40383702      26.97598045      30.66823134 
C      22.12429270      32.05845898      23.94822464 
C      23.45525621      31.84226801      17.79074380 
C      26.13079176      26.48144820      11.35876085 
C      26.12031210      20.59565364       9.45604140 
C      25.79093662      12.32752859      12.48408548 
C      23.54655064       8.70891871      17.06167536 
Ag      19.01417901      20.22215740      19.96741867 
Au      16.20961466      20.21877641      19.07612388 
Au      21.15034551      21.01365517      18.14842414 
Au      20.83588029      18.17739996      19.01907663 
Au      19.75389279      23.55913271      17.74637865 
Ag      20.49176481      21.80451468      15.42858083 
Au      20.20030806      19.01329215      16.26671212 
Ag      19.92946408      16.15930805      17.13205402 
Au      19.00256427      16.14400560      19.95210290 
Ag      18.15470807      16.15690600      22.75862350 
Ag      17.87052323      18.92940465      23.68191750 
Au      17.61600333      21.73508033      24.55921670 
Au      18.31457420      23.50319839      22.29607470 
Ag      19.03544077      25.23820832      20.02262191 
Ag      17.57005787      22.74707115      19.52457616 
Ag      18.29112124      21.05294274      17.22347342 
Ag      18.00523135      18.18615420      18.07311827 
Ag      17.10106430      18.15370802      20.88608906 
Au      16.85734568      20.95775272      21.79601627 
Au      19.99172416      14.00146985      21.87948530 
Au      19.07791003      14.06165384      24.66945605 
Au      18.77359797      16.89110491      25.60897738 
Au      18.54887625      19.73886238      26.54367300 
Ag      18.24329450      22.57632242      27.37033210 
Ag      18.92394584      24.32856968      25.04848568 
Au      19.73478304      26.09421365      22.78403509 
Au      15.48634850      22.46050300      26.36508541 
Au      16.06362478      24.28290344      24.18419624 
Au      16.89662915      25.98377627      21.89863122 
Ag      17.70542688      27.78839055      19.61293284 
Ag      18.35918391      26.12263175      17.28535491 
Au      19.05338300      24.33543811      15.08485100 
Au      19.78782471      22.56296040      12.72728547 
Au      19.48573413      19.81177609      13.45363027 
Au      19.28517863      17.02324659      14.39681469 
Au      19.08238969      14.12214068      15.28531033 
Au      18.03057183      14.07826218      18.04222936 
Ag      17.24579758      14.06427988      20.85666810 
Au      16.44433518      14.04014794      23.70297689 
Au      16.01775882      16.85118169      24.60595632 
Au      15.71743152      19.62695575      25.49346426 
Au      17.27332378      19.01857196      15.33458171 
Au      17.06550326      16.22199187      16.17137240 
Au      16.07758139      16.06315703      18.97307457 
Ag      15.33555504      16.07289258      21.79574292 
Ag      14.92371227      18.85168518      22.74619737 
Ag      14.78640525      21.67673563      23.62274624 
Ag      15.37012089      23.48746328      21.36954531 
Au      16.17581676      25.24902250      19.16646688 
Au      16.78584766      23.59462588      16.80012272 
Ag      17.60228781      21.87028324      14.51592578 
Au      14.67274089      22.79555168      18.62693527 
Au      15.45789528      21.03174009      16.29682471 
Ag      15.14326607      18.16852418      17.15721152 
Au      14.27095047      18.11623689      20.01469783 
Ag      13.98724040      20.98071461      20.91404676 
Au      13.25876406      20.22924561      18.13861939 
Au      13.31387120      15.22437416      19.59513874 
Ag      12.43712749      17.22684410      22.23120110 
Au      12.26528887      19.87126400      23.17097609 
Ag      12.51085826      23.29208013      22.02543697 
Ag      13.15779638      25.11040722      19.92710417 
Au      14.21070006      25.06092070      16.67215812 
Ag      15.01117811      23.50139321      14.42028437 
Au      15.26468322      20.11636287      13.48395586 
Ag      15.00562919      17.35939886      14.17434383 
Ag      14.08143882      15.37367055      16.88754700 
Au      12.37634766      17.55058361      17.92690929 
Au      11.68672625      19.34642517      20.33727423 
Au      11.94508633      22.45199088      19.32396197 
Au      12.94686183      22.42036114      16.29583519 
Au      13.20296125      19.40585254      15.41783703 
Ag      15.31521786      13.29869613      18.62962539 
Au      14.63121288      13.30776032      21.63105090 
Au      13.77434257      15.08985418      23.89279678 
Au      13.34760130      17.84851687      24.96688071 
Ag      13.16620536      20.74051794      25.88981814 
Ag      13.25423391      23.75911162      24.90309553 
Au      14.04891821      25.65064970      22.67213176 
Au      14.96373788      27.49638626      20.43158581 
Au      15.79979800      27.45577712      17.51005983 
Au      16.52842015      25.92358904      15.05669964 
Au      17.50409959      24.25588262      12.76011863 
Ag      17.41383309      21.13108768      11.74009988 
Au      17.28399100      18.21957010      12.53476518 
Au      17.21395614      15.33707147      13.42802699 
Au      16.25145627      13.57952550      15.76879266 
Au      16.53961085      11.56671148      25.47396611 
Ag      16.79887056      14.82872605      26.53122400 
Au      16.72166355      17.60690592      27.44430260 
Au      16.48497229      20.44294399      28.29041959 
Ag      15.58712992      23.30535790      29.28208589 
Ag      16.73098628      25.10079798      26.87477842 
Au      17.58526851      26.85563293      24.66233564 
Au      18.34577220      28.52501097      22.33324531 
Ag      18.58428226      30.66283589      20.04536956 
Ag      19.68584222      28.68285887      17.65497227 
Ag      20.53774898      26.91435794      15.42671793 
Au      21.16462250      25.08861955      13.21271762 
Ag      21.53230999      23.60198716      10.46840819 
Ag      21.57399138      20.56955872      11.60231898 
Au      21.48905859      17.78183371      12.46334542 
Au      21.17813341      14.99348136      13.44198801 
Au      20.42045088      11.81665142      13.78070481 
Ag      19.77007689      11.97680305      17.10278272 
Au      19.09257917      11.99120569      19.94071071 
Ag      18.25152721      11.94757903      22.78571085 
Au      11.18907335      14.33495642      17.35616519 
Au       9.56330438      18.31996053      22.89379824 
Au      10.18547960      24.99919049      20.99271333 
Ag      12.32749462      24.94918590      14.28201510 
Au      13.04546914      18.38832611      12.02286474 
Ag      12.12547199      27.63766193      21.78560325 
Au      10.73505670      18.58527613      26.25840394 
Au      12.88158396      11.69767272      19.03926657 
Ag      15.59960855      16.48019952      10.92211373 
Ag      14.96890302      26.14428469      12.53930322 
Ag      14.32139197      26.52511707      25.59561594 
Au      17.74208489      28.84259446      15.20899507 
Ag      19.18455239      19.04617238      10.33596388 
Au      16.85616834      10.80955893      17.55816501 
Au      13.82016825      15.63499291      27.14218734 
S      11.23222297      22.82874514      14.60419428 
S      11.58984984      18.36184986      13.86705492 
S      10.19184143      16.41880302      17.74402920 
S       9.31343250      19.64161941      20.97201221 
S       9.84058052      23.70644549      19.06615752 
S      12.98592682      27.12739909      13.51715686 
S      10.32463993      26.41199821      22.86633773 
S       9.60521031      17.03543916      24.86447660 
S      11.96154796      12.15599853      16.91166166 
S      14.32381957      18.34498889      10.04647269 
S      12.72077895      26.59069519      17.89935737 
S      11.34986847      22.08866186      23.91627385 
S      11.75314486      14.92197388      21.51277314 
S      14.01868702      15.04856055      14.41545745 
S      14.78761437      22.19811889      12.24982969 
S      16.73966470      25.68740216      10.94922471 
S      13.58076023      29.40797683      21.00528451 
S      11.68479250      20.07305248      27.80218313 
S      13.72938684      11.07039759      21.13052593 
S      16.77051196      14.39423511      11.23042660 
S      18.22870358      21.07684045       9.38558911 
S      15.95490987      29.67443012      16.52770309 
S      12.68423365      25.21671822      26.84488157 
S      12.98213668      13.83548068      25.85834299 
S      16.32878459      11.17813915      15.28929447 
S      20.51423029      17.00707285      10.37570020 
S      19.56113195      28.47656856      13.76266155 
S      15.78887867      28.41757189      25.17270071 
S      14.66692213      17.18271304      28.70350860 
S      17.49507655      10.13931018      19.72457890 
S      20.60612616      10.23171433      15.50952646 
S      20.25587625      13.28688827      11.94327262 
S      22.58481401      21.62247234       9.58790326 
S      20.54906931      25.76247029      10.95883708 
S      19.84427948      31.14720135      18.05581690 
S      17.07588134      30.55861478      21.93784374 
S      16.28950939      25.60622207      29.28530830 
S      14.59901707      21.13277611      29.67060369 
S      16.67275023      12.56089613      27.60097413 
S      16.41235769      10.36653181      23.45453551 
C       9.59892317      23.06686739      15.40230957 
C      10.23452422      19.52899674      13.46663653 
C       9.29477170      16.88766492      16.21859216 
C       8.20268670      18.73536750      19.82966590 
C       8.35810098      22.67888118      19.38169893 
C      11.91671340      27.50903239      12.06496192 
C       8.84373560      27.50022312      22.74160482 
C       7.87500771      17.06343508      25.48753044 
C      10.44813929      11.11153150      16.86620812 
C      13.21748434      17.59573912       8.77887285 
C      11.03999061      26.53320645      17.17273800 
C       9.51946376      22.27519222      23.92501505 
C       9.97870284      14.97762148      21.04593721 
C      12.30003213      14.76240887      13.82992928 
C      13.13773175      22.04799851      11.45974816 
C      16.07563744      24.55037811       9.67347484 
C      12.92432719      30.00842699      19.40148355 
C      10.52218518      21.49338610      27.89347741 
C      12.25707111      11.07047808      22.22839509 
C      15.50105612      13.10875331      11.54858996 
C      16.88466878      20.55458063       8.24833450 
C      14.55717823      29.96694732      15.38109738 
C      11.04252492      26.00217323      26.59852042 
C      11.15765335      13.87072766      25.99779020 
C      14.66523953      10.47205350      14.99542724 
C      21.82223793      17.30826774       9.11992530 
C      20.52272809      30.03734662      13.91016102 
C      16.17395806      29.05711034      26.85165870 
C      15.19375782      16.12151105      30.10708825 
C      18.53994298       8.65951265      19.41908318 
C      19.36811792       8.92958878      15.12931712 
C      21.53343064      12.78680437      10.73124298 
C      21.69950859      21.22320582       8.02676783 
C      21.71789606      27.05500909      10.39409160 
C      18.74224131      32.16680562      16.99619094 
C      17.63169091      31.79412833      23.17185929 
C      14.76028465      26.57711852      29.59800059 
C      14.91495637      20.66124610      31.41281293 
C      15.09439324      12.16806664      28.45264230 
C      17.09821305       8.70770345      23.83475132 
H      31.84098905      22.10558733      25.63581586 
H      31.88365769      23.63599810      26.55823488 
H      31.34916320      23.62868582      24.84162602 
H      31.62351300      19.55485762      26.57122377 
H      31.40268697      19.21613590      28.31377820 
H      30.53242546      20.59139472      27.53848861 
H      32.15654396      17.69577408      24.29038383 
H      32.44704079      15.95389060      24.57950619 
H      31.06030204      16.78571786      25.36705378 
H      33.76043910      18.59563911      20.75657167 
H      32.36008105      17.67161633      21.41052397 
H      32.83210362      19.23224759      22.14954217 
H      33.36771328      23.33901074      21.89315899 
H      32.46704513      21.98269142      21.13677140 
H      32.65877760      22.05195976      22.91128492 
H      30.02323548      27.92461650      27.98612033 
H      29.17800714      26.95902418      29.23214617 
H      28.65432948      28.63760724      28.89339689 
H      32.15359698      27.98916942      17.54967910 
H      33.05254642      26.54048165      18.09642817 
H      32.29539399      27.62980534      19.29747461 
H      33.08245830      16.68670441      14.48044730 
H      33.70379691      16.49321005      16.15163911 
H      33.49548081      18.13216439      15.45643046 
H      29.99674307      10.02712402      23.86470328 
H      30.90414820      11.28982254      24.75271821 
H      30.94113971      11.25022582      22.96322005 
H      28.45634800      18.62555843      32.23337040 
H      28.22475081      16.91870098      31.73833671 
H      27.08921729      17.67576529      32.89996299 
H      30.22053587      27.38400489      22.85495967 
H      30.10999378      25.79472247      23.66895828 
H      29.54425699      27.27779837      24.51887531 
H      32.07804247      21.63482366      16.94575392 
H      31.65615893      22.03175569      18.63892523 
H      31.79736441      23.35001727      17.42297551 
H      31.24074956      14.99476973      18.53570476 
H      30.92199943      13.81241074      19.85633481 
H      31.15231974      15.54512716      20.24484482 
H      28.88354332      13.97176475      26.69535910 
H      28.55365764      15.04881324      28.10422797 
H      29.13665062      15.74427907      26.56254851 
H      27.67853785      23.27936426      29.78596509 
H      28.36140535      22.00898346      28.71742266 
H      27.48510026      21.53880187      30.21633349 
H      23.89892215      24.72988057      31.65305688 
H      25.35646021      25.77307928      31.70342836 
H      25.37378540      24.23309515      30.77665907 
H      29.05582399      30.60036739      20.81521103 
H      28.38076680      29.26734215      21.81836407 
H      27.39394468      30.71685415      21.48005675 
H      31.42057963      21.48917719      12.90874966 
H      30.65701188      22.04620905      14.44349918 
H      29.98106359      22.56689109      12.87207396 
H      28.62932517      11.16980130      17.31512749 
H      29.69164160      10.63723213      18.65611654 
H      29.29094174      12.37583241      18.45044430 
H      24.82429400      12.36208112      29.32831943 
H      25.86686964      13.12338029      30.57147473 
H      26.07198714      13.54192395      28.83340596 
H      24.60280832      21.44016211      32.80118321 
H      24.74989831      19.84282426      32.00872858 
H      23.67194269      20.04737199      33.43090341 
H      27.25794888      30.40792965      24.87031925 
H      26.61801761      29.26906174      26.08930730 
H      26.09327188      30.98479109      26.10261860 
H      29.82694881      27.06756269      13.94878481 
H      30.59668458      25.45679611      14.05890280 
H      29.96567596      26.24202950      15.53415697 
H      30.00268262      13.67552202      13.82318770 
H      30.15885880      13.10930495      15.51449850 
H      30.17717773      14.86271037      15.15917077 
H      26.12482473       9.33854805      25.71409603 
H      26.45607521      10.67195027      26.86473434 
H      26.87516162      10.86797565      25.13603958 
H      18.40441332      16.32927282      31.66444089 
H      18.53411192      18.11396707      31.65333503 
H      19.52659148      17.14732123      32.79409970 
H      19.55058739      29.73026418      27.69608139 
H      20.27587372      30.20616408      26.13195155 
H      21.08811536      30.64922125      27.66956328 
H      25.58594933      29.57686347      13.61627832 
H      23.89977006      29.89582066      14.12582311 
H      24.32614299      28.31922891      13.39564566 
H      25.33567922      16.87136006      10.10164247 
H      25.18433058      15.41268361      11.12962813 
H      26.76869134      15.83257410      10.39147613 
H      21.74216025       8.24696640      20.59567668 
H      21.38168008       8.85446243      22.24104161 
H      22.78018322       7.76195738      21.97061278 
H      21.56409454       8.28283101      24.82291517 
H      21.00042223       8.32883370      26.52082073 
H      22.35184476       9.38310178      25.98742977 
H      19.61732759      11.86485241      30.66322181 
H      18.31799135      12.57286818      29.64807726 
H      19.15787909      13.58146127      30.88048927 
H      18.88230215      20.26035705      33.24313371 
H      18.97141810      21.99760888      33.66716428 
H      20.33408605      21.20966152      32.79631621 
H      19.73749892      27.92065468      30.22140023 
H      19.57729637      26.99762836      31.75032510 
H      18.34179041      26.80742069      30.45618267 
H      22.19538477      33.07418151      23.54193579 
H      23.12356480      31.65290078      24.13784661 
H      21.54299060      32.07456989      24.87771550 
H      23.88813274      31.58736430      16.81558978 
H      23.88093379      32.78673630      18.14921460 
H      22.36426681      31.91777678      17.71796232 
H      26.44868021      26.36386001      10.31640653 
H      26.95936325      26.25760076      12.04018351 
H      25.77532176      27.50582866      11.52066541 
H      26.80971831      21.16407310       8.82173475 
H      25.08275902      20.81844280       9.18207041 
H      26.31939614      19.52309869       9.34075555 
H      25.90994256      12.97656053      11.60874193 
H      25.80105121      11.27826842      12.16551252 
H      26.60453872      12.51553929      13.19198182 
H      24.23716389       8.08813382      16.47915023 
H      22.61120624       8.84389179      16.50748581 
H      23.34573537       8.22198437      18.02367706 
H       8.93630313      23.57319477      14.69095166 
H       9.67534167      23.65184221      16.32435085 
H       9.19327140      22.07551718      15.63903749 
H       9.71471776      19.16634973      12.57287706 
H      10.61019766      20.54531673      13.31174825 
H       9.54372295      19.52618568      14.31905402 
H       8.47165751      16.18049994      16.06609048 
H       9.95790116      16.89905031      15.34748556 
H       8.88888559      17.89401408      16.38069998 
H       8.10986625      19.34279845      18.92064459 
H       7.22006351      18.63089029      20.30311534 
H       8.60716387      17.75283667      19.56661257 
H       8.22520892      22.02690567      18.50938232 
H       7.49168854      23.34291461      19.47774702 
H       8.47512502      22.06454573      20.27975429 
H      12.35388769      28.35859583      11.52751509 
H      10.92021085      27.78400396      12.42983825 
H      11.83207842      26.65562901      11.38636236 
H       7.95043209      26.91104636      22.97794279 
H       8.74696671      27.93509296      21.74297988 
H       8.96115045      28.30144207      23.48103193 
H       7.25838256      16.46725859      24.80503378 
H       7.48695297      18.08400658      25.54544971 
H       7.87159289      16.60712086      26.48438961 
H       9.88525710      11.37543348      15.96344555 
H       9.82587536      11.26879666      17.75136388 
H      10.76428177      10.06319519      16.81326388 
H      13.82789522      17.37615812       7.89482655 
H      12.44067989      18.32266391       8.51561488 
H      12.75320087      16.67467048       9.14182464 
H      11.06677936      27.04470682      16.20243449 
H      10.35926818      27.05732670      17.85509245 
H      10.69549001      25.50305106      17.04678322 
H       9.28710699      23.33404614      24.08638232 
H       9.10602217      21.65974577      24.73229193 
H       9.11616189      21.94326352      22.96223068 
H       9.74691232      14.09159407      20.44254903 
H       9.74502539      15.87990734      20.47388754 
H       9.39414456      14.96814063      21.97384543 
H      12.28773637      14.85409906      12.73715780 
H      11.61286648      15.49534295      14.26343211 
H      12.00096728      13.75090528      14.12757647 
H      13.17156350      21.22358178      10.73784267 
H      12.92767286      22.99407443      10.94558909 
H      12.36560948      21.85928936      12.21216392 
H      15.48060161      25.14015914       8.96662752 
H      15.46236203      23.76248426      10.12399611 
H      16.92684357      24.08942180       9.15702920 
H      13.71887621      30.58291164      18.90944884 
H      12.06697389      30.66015806      19.60575984 
H      12.62508084      29.17374444      18.75690729 
H      11.02824772      22.27092136      28.47982227 
H       9.60298523      21.18326469      28.40215432 
H      10.29088852      21.89309093      26.90107695 
H      11.60346103      10.23826318      21.94465853 
H      11.71999283      12.02392928      22.16629067 
H      12.63114553      10.92215191      23.24919650 
H      14.99874639      12.87453098      10.60304547 
H      14.77436167      13.45072386      12.29454449 
H      16.01811708      12.21747032      11.92523104 
H      17.32514151      20.08761731       7.36012890 
H      16.33090838      21.45268961       7.94860171 
H      16.19565841      19.85472584       8.73328349 
H      14.80059811      30.83481295      14.75741372 
H      13.67471458      30.18668167      15.99411362 
H      14.35388752      29.09310633      14.75328787 
H      10.28108604      25.32621455      27.00641121 
H      10.83566214      26.17982113      25.53760885 
H      11.01288281      26.95160318      27.14527967 
H      10.76729592      13.12509999      25.29434214 
H      10.75212662      14.85638796      25.74784211 
H      10.88019872      13.59302351      27.02106336 
H      14.36716724      10.76334205      13.98075077 
H      13.93254454      10.85220206      15.71392170 
H      14.73397805       9.38031340      15.06147631 
H      21.36597028      17.23321832       8.12564860 
H      22.58946184      16.53258411       9.22994608 
H      22.27996389      18.29540850       9.24546941 
H      19.95506255      30.85163351      13.44604356 
H      21.46259969      29.89052748      13.36396024 
H      20.74257434      30.28000757      14.95585138 
H      16.98374670      29.79081635      26.76079137 
H      16.48322037      28.25240400      27.52813217 
H      15.27637310      29.54996038      27.24385742 
H      14.29704071      15.71815108      30.59161591 
H      15.74042254      16.75906600      30.81258416 
H      15.84138777      15.30517952      29.77049111 
H      17.89606322       7.84721612      19.06280457 
H      18.99434216       8.37839831      20.37695075 
H      19.32553940       8.86850348      18.68551927 
H      19.70740165       8.37689540      14.24607142 
H      18.37918683       9.36291264      14.94952602 
H      19.32136547       8.25148532      15.98983552 
H      21.59927557      13.59277574       9.99005903 
H      21.20124576      11.86287503      10.24352773 
H      22.50374847      12.63321961      11.21668313 
H      21.97619936      21.97343071       7.27725396 
H      20.61353196      21.22019344       8.17363902 
H      22.02741541      20.23392340       7.68655733 
H      21.56899723      27.19424504       9.31637828 
H      22.75724884      26.77055716      10.59147732 
H      21.47070946      27.98475867      10.92062748 
H      19.17378776      32.21169802      15.98927174 
H      18.69884316      33.17703377      17.41907779 
H      17.73532051      31.74219955      16.93686414 
H      17.22743194      32.76958770      22.87539263 
H      18.72455528      31.84547407      23.22476589 
H      17.21682247      31.50459918      24.14481645 
H      14.98787944      27.63806308      29.44078490 
H      14.46390779      26.42179459      30.64157957 
H      13.94859218      26.27283625      28.92747908 
H      14.76231278      19.57906624      31.50192606 
H      14.18410601      21.18564726      32.04011594 
H      15.93153905      20.92876883      31.72158389 
H      15.07955610      11.09551434      28.67680141 
H      14.23279605      12.43836493      27.83426708 
H      15.06792888      12.73778772      29.38926106 
H      17.20888749       8.18030399      22.87917160 
H      16.38934076       8.16427727      24.46953672 
H      18.06963261       8.78753194      24.33565423 
