646
Properties=species:S:1:pos:R:3 i=103 optimized=T E=-9873.0027155579 pbc="F F F" jobid=246_80-Ag-30_1-000007-PBE
Au      21.88266550      20.19603086      20.91270850 
Au      24.78948329      20.24031344      21.81709888 
Au      20.45407572      22.69926523      20.43911619 
Au      19.69898562      20.99501818      22.70524546 
Au      19.94901126      18.16959478      21.84815533 
Ag      21.13973202      23.54759169      23.14500294 
Au      20.37985403      21.80817624      25.40493288 
Ag      20.67032400      19.00276646      24.56691750 
Au      20.90765353      16.20508950      23.69201662 
Ag      21.90948624      16.11532282      20.95844944 
Au      22.74808336      16.10490630      18.18715640 
Au      23.03543096      18.90431393      17.23904403 
Au      23.29892225      21.71351809      16.32342102 
Au      22.62347247      23.46960645      18.55746795 
Au      21.83970332      25.21179942      20.85089948 
Au      23.37062959      22.72419327      21.30079022 
Au      22.62144459      21.02636289      23.63636354 
Au      22.92340721      18.20773739      22.81672094 
Au      23.82759533      18.16532889      19.99281382 
Ag      24.10241773      20.95669603      19.07196371 
Au      20.89271708      14.02549092      19.05639723 
Au      21.84842879      14.04580760      16.19655747 
Au      22.15379792      16.83645631      15.29888436 
Au      22.35194025      19.70505308      14.39958377 
Ag      22.67748510      22.54996134      13.51910642 
Au      21.99138677      24.34140128      15.80165974 
Au      21.17415194      26.10972335      18.07453034 
Au      20.41428424      27.83326734      20.41153752 
Au      25.39856013      22.48548063      14.47073086 
Au      24.79307261      24.29294466      16.70524256 
Au      24.00952172      25.98857471      18.93127485 
Au      23.15828909      27.77523429      21.21455849 
Au      22.50492787      26.12946269      23.60554550 
Au      21.76234734      24.40684893      25.82221391 
Ag      20.97227437      22.64724061      28.12812244 
Au      21.32548590      19.80316313      27.35539429 
Au      21.54756488      17.05696725      26.47472637 
Au      21.80075358      14.18524513      25.56356006 
Au      22.87915442      14.02648296      22.85284748 
Ag      23.71444453      14.01749799      20.06693633 
Au      24.51625117      14.02980434      17.20757043 
Au      24.91295033      16.81834101      16.27804355 
Au      25.17867642      19.62359232      15.44229618 
Ag      23.63294184      19.03614237      25.60586389 
Au      23.77133340      16.24195659      24.70764666 
Au      24.80424653      16.10889542      21.89703598 
Ag      25.58712076      16.07397759      19.07873583 
Au      26.04756619      18.91258959      18.15960901 
Ag      26.20551525      21.69289852      17.23074055 
Ag      25.58944178      23.51358532      19.49084502 
Au      24.73471357      25.23355910      21.73141539 
Au      24.14773355      23.53180370      24.04968378 
Au      23.24776212      21.90495447      26.29261355 
Au      26.28819758      22.76745441      22.23987956 
Au      25.53821348      21.02031075      24.62906435 
Ag      25.77732588      18.16734681      23.75077775 
Au      26.68725905      18.14221629      20.89912643 
Ag      27.01579332      20.98378838      19.96266402 
Ag      27.67257225      20.20412192      22.74694485 
Au      27.62034465      15.24725067      21.31260954 
Au      28.43661328      17.24963106      18.57829588 
Ag      28.77163162      19.89490866      17.64146740 
Au      28.43384199      23.34035398      18.77642558 
Au      27.82837301      25.07450106      20.85019658 
Ag      26.73435557      25.03684194      24.17620542 
Au      26.06600926      23.49432343      26.43797770 
Au      25.65073378      20.10773476      27.50705213 
Ag      25.83162617      17.39261663      26.76962195 
Au      26.79387902      15.39001395      23.97263237 
Au      28.58348604      17.52437895      22.97848119 
Au      29.26270861      19.24883735      20.57434970 
Au      29.01814587      22.41506240      21.54487618 
Au      28.07989493      22.42121325      24.47232505 
Au      27.67237793      19.40925155      25.50468580 
Au      25.59064113      13.33726072      22.22137851 
Ag      26.38539093      13.30846318      19.27399460 
Au      27.14087178      15.07544224      16.95819360 
Au      27.55761983      17.89916742      15.86133815 
Au      27.66598556      20.75776662      14.84964211 
Au      27.53342169      23.83084423      15.95727670 
Ag      26.82401310      25.72305760      18.15624900 
Au      25.91612756      27.48493885      20.42862403 
Au      25.08901149      27.48044732      23.36316918 
Au      24.39497222      25.80225955      25.75872380 
Au      23.47923052      24.08130958      28.09703500 
Au      23.31077629      21.23454166      28.98730935 
Au      23.57442754      18.27887035      28.37812376 
Au      23.63103498      15.38095136      27.41217525 
Ag      24.68637859      13.57753607      25.19916028 
Au      24.38053151      11.55472401      15.40935020 
Ag      24.15653919      14.77217269      14.36413701 
Au      24.19967858      17.52525611      13.45489886 
Au      24.43448357      20.36254657      12.66516976 
Au      25.52204588      23.23783507      11.51042806 
Ag      24.16693229      25.08868887      13.98058984 
Ag      23.36057759      26.86971180      16.16801703 
Au      22.53023691      28.51972711      18.44007081 
Au      22.58586607      30.74283195      20.83365338 
Ag      21.20145011      28.67695861      23.16121854 
Ag      20.34392579      26.97549135      25.42832518 
Ag      19.63027618      25.18618265      27.69291331 
Ag      19.32174028      23.67618709      30.42409800 
Au      19.30370204      20.51662079      29.26640125 
Au      19.37124501      17.72214883      28.32547588 
Ag      19.71201856      14.92334284      27.49052903 
Ag      20.50375601      11.88735236      26.96347232 
Ag      21.02578859      11.99117617      23.79778341 
Au      21.79719346      11.95118071      20.98071280 
Au      22.65310913      12.01689493      18.16830624 
Ag      29.53257231      14.29711218      23.49747994 
Au      31.42671843      18.33187694      18.00528177 
Au      30.86621633      24.98792993      20.00626211 
Au      28.83322564      24.96216350      26.66248570 
Au      27.98838967      18.38742121      28.77282291 
Ag      28.83140468      27.60000324      19.23257445 
Ag      30.15777515      18.88484198      14.90092473 
Au      27.97202261      11.64792740      21.82773966 
Au      25.31843260      16.54706459      30.11974444 
Ag      25.97524887      26.08293918      28.20976410 
Ag      26.53256303      26.64726947      15.17111126 
Ag      23.15073924      28.56778950      25.58554691 
Au      21.64210288      18.96988630      30.69524306 
Ag      23.97525076      11.13392786      23.42635135 
Au      27.16041811      15.66518290      13.74211245 
S      29.80217707      22.88138484      26.16265155 
S      29.39698721      18.33648472      26.89664944 
S      30.75367020      16.35087813      23.16858031 
S      31.61483283      19.59956913      19.96994637 
S      31.16723296      23.60476759      21.87658516 
S      28.01953129      27.06506410      27.30595711 
S      30.73088595      26.48740197      18.20411364 
S      31.46546095      17.14288465      15.98310671 
S      28.77426227      12.05840511      24.01452569 
S      26.73519557      18.33017371      30.76689479 
S      28.13056298      26.57289336      22.79875876 
S      29.79757684      22.13017109      17.13309254 
S      29.11501568      15.00366703      19.36313478 
S      26.78493307      15.07558654      26.39776221 
S      26.33468840      22.23451350      28.56685495 
S      24.13129374      25.72288752      29.75621293 
S      27.30218558      29.38407716      19.81588212 
S      29.48737198      20.53313761      13.25143587 
S      27.32715534      11.02181344      19.65717213 
S      23.96458382      14.67001125      29.71957208 
S      22.69078195      20.99747194      31.33512892 
S      24.98950165      29.67447103      24.37926369 
S      28.29749489      25.28946089      14.15184350 
S      28.03645852      13.87026524      15.00702998 
S      24.43326857      11.19252112      25.82058466 
S      20.49283626      16.93877417      30.37771815 
S      21.28279801      28.48270026      27.14185461 
S      25.08809488      28.54453259      15.54748702 
S      26.27714949      17.20961768      12.19678718 
S      23.32701069      10.08238318      21.32299747 
S      20.24429834      10.16140676      25.30284566 
S      20.71483570      13.18375445      28.97939453 
S      18.35757584      21.62577903      31.24219308 
S      20.35838651      25.79449021      29.97979390 
S      21.24793994      31.14948350      22.72432090 
S      23.89523388      30.49459258      18.88409640 
S      24.77896635      25.46606716      11.57223138 
S      26.32792761      21.03542658      11.26345642 
S      24.32060635      12.51954227      13.27056242 
S      24.37815147      10.41662730      17.47470810 
C      31.45340286      23.18311505      25.43169673 
C      30.77621524      19.49715202      27.22959805 
C      31.70600950      16.74439433      24.68260757 
C      32.69923017      18.67417347      21.12076418 
C      32.66733966      22.59326855      21.60136048 
C      29.00661314      27.53117211      28.78795874 
C      32.12233410      27.67015512      18.43762513 
C      33.17040972      17.37059847      15.32618362 
C      30.26690896      10.98925223      24.14093992 
C      27.85352564      17.56935675      32.01345996 
C      29.85111343      26.54556136      23.42993589 
C      31.56280100      22.33901849      17.58396344 
C      30.88689459      15.04017154      19.83122729 
C      28.48965386      14.71183991      26.97517736 
C      28.06496689      22.07870279      29.14162767 
C      24.80697498      24.68979695      31.11480837 
C      27.85658524      30.03904425      21.43719907 
C      30.53044341      22.02241167      13.48381151 
C      28.88095260      11.11994654      18.67973919 
C      25.13106870      13.26533064      29.53085776 
C      24.15172749      20.55127642      32.34517456 
C      26.36535675      29.90081990      25.56636370 
C      29.90626523      26.06766436      14.56213918 
C      29.86186821      13.97124683      14.91259792 
C      26.06738113      10.39849566      26.08064031 
C      19.16114759      16.99012930      31.64113390 
C      20.45571750      30.11127050      26.91836685 
C      24.68746142      29.12617888      13.84870917 
C      25.78411158      16.15099198      10.77845807 
C      22.23271960       8.69093295      21.81343321 
C      21.51502036       8.89346707      25.69639854 
C      19.44072560      12.52539151      30.12565245 
C      19.26136655      21.19450600      32.78071035 
C      19.21307367      27.08968249      30.59645172 
C      22.26692044      32.15751264      23.87138391 
C      23.38583538      31.82434239      17.73246628 
C      26.27018193      26.49090082      11.25850074 
C      26.00282145      20.55047970       9.52685433 
C      25.93259738      12.14193814      12.47855938 
C      23.54618863       8.81446588      17.15994870 
Ag      19.00657318      20.21997475      19.97545926 
Au      16.16656131      20.19971273      19.02969919 
Ag      21.18290463      20.97436796      18.16215178 
Au      20.89010591      18.18753274      19.05762498 
Au      19.76945553      23.51018839      17.72528372 
Ag      20.51581002      21.77867401      15.45273637 
Au      20.20375498      18.98405283      16.28420470 
Au      19.95926484      16.17428388      17.18725042 
Au      19.04302056      16.12347116      19.95762397 
Ag      18.11948487      16.12644510      22.79914407 
Ag      17.79342178      18.91776660      23.65558602 
Au      17.59763833      21.71715490      24.52223534 
Ag      18.26663285      23.50019505      22.27111279 
Au      19.04855541      25.21625585      20.01977312 
Au      17.53036262      22.73323371      19.51423801 
Au      18.28367282      21.01466093      17.22896643 
Ag      18.00845115      18.19779545      18.06919828 
Au      17.10945313      18.13623588      20.88744339 
Au      16.80920693      20.97940161      21.77025067 
Ag      20.04349106      14.04499236      21.91190403 
Au      19.07939567      14.07484501      24.71018725 
Ag      18.74749246      16.88739386      25.57257288 
Ag      18.53821228      19.73691736      26.46487433 
Au      18.25905899      22.56966570      27.32091798 
Au      18.94611474      24.40001931      25.03776152 
Au      19.71827010      26.13845726      22.75933517 
Au      15.53636144      22.45990139      26.42593524 
Au      16.11638468      24.33252727      24.12798337 
Au      16.87911246      25.99746296      21.89143829 
Ag      17.69402815      27.78481119      19.61397593 
Au      18.33212599      26.13162870      17.24965004 
Au      19.09683195      24.34537960      15.07254621 
Au      19.92278742      22.60017533      12.74893824 
Au      19.53647378      19.75708166      13.48962032 
Au      19.27912945      16.98298178      14.36712529 
Au      19.13469353      14.12871862      15.30869993 
Ag      18.10929246      14.04019673      18.06260973 
Au      17.21577517      14.09718713      20.88285535 
Ag      16.39168245      14.03771697      23.79075762 
Ag      15.94333519      16.83092596      24.67388222 
Ag      15.70447208      19.64187342      25.52047864 
Au      17.27694633      18.97695255      15.25982286 
Ag      17.15153370      16.19911669      16.19139041 
Ag      16.12755898      16.08992666      18.97811231 
Ag      15.33910799      16.10116770      21.83561849 
Au      14.92402259      18.88614804      22.77748705 
Au      14.74399801      21.74179622      23.64649423 
Au      15.26921565      23.54317390      21.34625526 
Au      16.16508950      25.26004256      19.12812051 
Au      16.77750362      23.63424532      16.74886608 
Au      17.65010170      21.83523882      14.56314533 
Au      14.65904499      22.73664322      18.57020127 
Ag      15.39859823      21.02399028      16.24169404 
Au      15.15991444      18.15757040      17.10962371 
Au      14.24730222      18.11449476      19.98223899 
Au      13.92324747      20.97544155      20.89744622 
Ag      13.28694457      20.18463005      18.11546441 
Au      13.33857162      15.17593264      19.51272760 
Au      12.47432310      17.32698257      22.25416561 
Au      12.16991534      19.95763677      23.17251901 
Ag      12.43482481      23.28387938      22.11816586 
Au      13.10023609      25.02479449      19.98209206 
Ag      14.19844546      25.03089791      16.73209945 
Au      14.94572386      23.48308532      14.48110004 
Au      15.21614851      20.04073736      13.42469727 
Au      15.05002550      17.37437881      14.16569394 
Ag      14.22894238      15.34306180      16.85129535 
Au      12.44572581      17.49267499      17.81016389 
Au      11.60857637      19.36004558      20.28505149 
Au      11.89796115      22.34080200      19.37005581 
Au      12.86205319      22.39247886      16.39413938 
Ag      13.12164270      19.32926128      15.40222594 
Au      15.40765871      13.34086244      18.64465922 
Ag      14.58969559      13.30577875      21.57785823 
Au      13.75983558      15.07255840      23.85662549 
Au      13.32199527      17.94380542      25.00029149 
Ag      13.15495362      20.86797025      25.87435918 
Au      13.38911423      23.80147850      24.97432840 
Ag      14.00063870      25.71537113      22.69765261 
Au      14.93937376      27.46135575      20.40328815 
Au      15.73235756      27.47751517      17.51644972 
Ag      16.48353493      25.94309909      15.03028038 
Au      17.42683099      24.07662783      12.81774998 
Au      17.55014630      21.14783848      11.87036381 
Ag      17.34485667      18.17014278      12.45442182 
Ag      17.21617524      15.27838400      13.44192348 
Au      16.38630486      13.54043783      15.79604770 
Au      16.57549733      11.56499559      25.52476907 
Au      16.87639892      14.88708452      26.59188078 
Au      16.71251222      17.64795433      27.42836222 
Au      16.46769325      20.41834805      28.28173799 
Au      15.31955699      23.25089880      29.36909853 
Au      16.75692997      25.13239930      26.83939912 
Au      17.54881396      26.88424674      24.65565314 
Au      18.31744873      28.54898797      22.36128469 
Ag      18.61193053      30.64736446      20.07171643 
Au      19.64913342      28.65563451      17.60624306 
Au      20.56258837      26.92763361      15.42110302 
Au      21.28505587      25.13817254      13.21761398 
Ag      21.59151319      23.66153149      10.48051128 
Au      21.59065291      20.50767037      11.61164016 
Au      21.51346222      17.73162125      12.49380705 
Au      21.27128093      14.95639782      13.44889900 
Au      20.37733552      11.83001982      13.70608067 
Au      19.87691923      11.91738380      17.16587992 
Au      19.13828705      11.99544687      19.95977195 
Au      18.22297084      12.04254805      22.74733891 
Ag      11.33731429      14.41454345      17.36946753 
Ag       9.68060923      18.27555114      22.84164204 
Au      10.11486164      24.90948769      20.92821354 
Ag      12.27051174      24.81875733      14.38233535 
Au      12.96328855      18.38192166      12.06909682 
Au      11.95144139      27.73130966      22.05699156 
Au      10.67565442      18.56614882      26.20231339 
Ag      12.84431357      11.99125917      19.19128395 
Au      15.67563918      16.45042685      10.71721624 
Au      14.84282019      26.32690796      12.55840776 
Ag      14.42399486      26.70113159      25.62068378 
Au      17.65331283      28.84557282      15.12012233 
Au      19.23581606      18.93305398      10.10057313 
Au      16.87355169      10.85350902      17.57557327 
Au      13.79221306      15.71614160      27.04114902 
S      11.12716945      22.71493012      14.70226792 
S      11.40834801      18.35701237      13.82153297 
S      10.21104749      16.49850695      17.75483850 
S       9.23496568      19.57868181      20.86379244 
S       9.81497648      23.60321967      19.00370601 
S      12.91770080      27.05134192      13.71923753 
S      10.20454512      26.32762541      22.80818591 
S       9.54495300      16.97109444      24.86815669 
S      11.96239939      12.14533658      16.93433660 
S      14.32951759      18.30911199      10.14434268 
S      12.72550990      26.56464867      18.06163798 
S      11.11052782      22.06909665      23.87789309 
S      11.81545106      15.08955587      21.48976145 
S      14.21846228      15.05952963      14.35705852 
S      14.63688666      22.18451759      12.36137290 
S      16.71761093      25.78584662      11.23703622 
S      13.58661084      29.26319305      21.35372439 
S      11.61680136      20.11945952      27.69388649 
S      13.39120925      11.14185218      21.38305545 
S      16.95613036      14.52090066      11.06957979 
S      18.15131515      20.95266428       9.51936139 
S      15.88096285      29.65838616      16.45361146 
S      12.70196274      25.34878128      26.71361863 
S      13.00213900      13.83380677      25.83936743 
S      16.34839506      11.12238351      15.28343074 
S      20.46222130      16.94802965      10.40788737 
S      19.50252528      28.37431736      13.73558248 
S      15.87778498      28.60434297      25.16824781 
S      14.51819352      17.37212399      28.54742643 
S      17.47080004      10.20016768      19.76112410 
S      20.56041753      10.26918208      15.45039683 
S      20.33525137      13.31717426      11.88195454 
S      22.52216980      21.61079322       9.62491918 
S      20.59137206      25.80377747      10.96915718 
S      19.80764237      31.06370872      18.02194799 
S      17.08632517      30.61206028      21.94570466 
S      16.19043181      25.43061820      29.21552661 
S      14.50040622      21.06938759      29.67872941 
S      16.73208496      12.62729828      27.61354465 
S      16.46508328      10.43571205      23.46682933 
C       9.48525770      22.96214706      15.47517571 
C      10.04634171      19.49185727      13.35685214 
C       9.25832049      16.97882810      16.26723093 
C       8.11788107      18.66274659      19.73713880 
C       8.30688867      22.59668181      19.25068658 
C      11.76808448      27.58389292      12.38369103 
C       8.70862741      27.39104037      22.68454628 
C       7.80275634      17.06084981      25.45368820 
C      10.40335506      11.16346100      16.97183332 
C      13.25330351      17.64361400       8.80904324 
C      11.01900216      26.54585973      17.38869907 
C       9.30122793      22.09889184      23.56523887 
C      10.02983591      15.08299768      21.07217306 
C      12.51510109      14.84920166      13.69942285 
C      12.92958122      22.08462048      11.70416375 
C      16.03156867      24.78367994       9.85997572 
C      12.86013445      30.00847119      19.84034871 
C      10.42241191      21.51601934      27.71925259 
C      11.89381193      11.38790857      22.41813890 
C      15.70772513      13.18577452      11.26464269 
C      16.72524782      20.54018280       8.44860639 
C      14.45409717      30.00558534      15.36159480 
C      11.05526599      26.08429845      26.39615428 
C      11.17663773      13.82777128      25.98606277 
C      14.65707777      10.47003648      15.02907551 
C      21.80743695      17.09476998       9.16571418 
C      20.46316215      29.93814930      13.80974880 
C      16.30928054      29.20009821      26.85204196 
C      14.96795149      16.42555269      30.05594779 
C      18.49676574       8.70098294      19.48841324 
C      19.31550866       8.95917187      15.14415563 
C      21.65370114      12.74368076      10.74571703 
C      21.58045520      21.22161129       8.09763665 
C      21.71237640      27.12245366      10.36783476 
C      18.67405629      32.05140255      16.96819705 
C      17.64385749      31.85008993      23.17569119 
C      14.79197283      26.58174876      29.50726817 
C      14.83166131      20.66229707      31.43457590 
C      15.14985905      12.32723390      28.49069697 
C      17.23533400       8.79725960      23.75170931 
H      31.87517255      22.20382640      25.17294343 
H      32.08242541      23.66533070      26.18849699 
H      31.39731195      23.80050967      24.52972708 
H      31.41483701      19.49911339      26.33752640 
H      31.34618894      19.12537730      28.08836188 
H      30.41795246      20.51400221      27.41774260 
H      32.15538887      17.73690748      24.55402439 
H      32.50185522      15.99838665      24.79190877 
H      31.06804171      16.74829719      25.57194054 
H      33.68163047      18.55206681      20.65135438 
H      32.27452985      17.70149349      21.38970197 
H      32.79786743      19.28459324      22.02716852 
H      33.52842745      23.26636361      21.52161459 
H      32.58313342      21.97003778      20.70591190 
H      32.78773321      21.94808756      22.48067746 
H      30.02902466      27.76574851      28.47062173 
H      29.02584051      26.72911290      29.53094258 
H      28.54388708      28.42419505      29.22484083 
H      31.97646714      28.49790970      17.73347135 
H      33.06193315      27.15438903      18.20908747 
H      32.15500557      28.05937224      19.45892347 
H      33.18046237      16.99578454      14.29576691 
H      33.86523994      16.78301976      15.93692821 
H      33.46904761      18.42246253      15.33579652 
H      29.94584551       9.94128739      24.15233133 
H      30.77121094      11.22770739      25.08492826 
H      30.95397320      11.15455203      23.30642886 
H      28.64045321      18.29493723      32.24973211 
H      28.30002152      16.64423675      31.63906833 
H      27.26100692      17.36031563      32.91182078 
H      30.51794189      26.95641674      22.66230753 
H      30.16604661      25.52893182      23.68001039 
H      29.87544105      27.16968123      24.33153528 
H      32.15409493      21.68811194      16.92797367 
H      31.73618063      22.05872996      18.62651116 
H      31.83478761      23.38942185      17.42755349 
H      31.46725906      15.14811674      18.90683452 
H      31.12858342      14.09153680      20.32625317 
H      31.09999663      15.87299964      20.50706874 
H      28.78448115      13.72853661      26.59059938 
H      28.47301468      14.70294541      28.07186914 
H      29.18493687      15.48290569      26.62785186 
H      28.43973423      23.08158746      29.38143604 
H      28.69997103      21.62668475      28.37530547 
H      28.05856972      21.44907263      30.03966264 
H      23.95957410      24.25691563      31.66061012 
H      25.38642446      25.33742525      31.78315899 
H      25.44024984      23.88482232      30.72441546 
H      28.68543916      30.73361151      21.25776343 
H      28.17561287      29.22704550      22.10109517 
H      27.01210947      30.57053060      21.89313626 
H      31.50493376      21.83488583      13.01828694 
H      30.65354764      22.25760634      14.54666750 
H      30.03030691      22.86253628      12.98581624 
H      28.60242212      10.96902595      17.62920047 
H      29.56219096      10.32356026      18.99837437 
H      29.36169377      12.09854157      18.78785968 
H      24.54533626      12.42012120      29.14750840 
H      25.54780053      13.02124544      30.51439051 
H      25.92995716      13.50439467      28.82141262 
H      24.73040996      21.46963605      32.50264309 
H      24.77676865      19.80589420      31.84373891 
H      23.80112670      20.16592067      33.30951476 
H      27.28628682      30.07793946      24.99844680 
H      26.50146159      29.02374119      26.20586706 
H      26.13764627      30.77903451      26.18225153 
H      30.02716265      26.95808508      13.93400343 
H      30.70087462      25.34723888      14.33330893 
H      29.96765064      26.34543309      15.61906378 
H      30.17370611      13.71493395      13.89361387 
H      30.26053021      13.23036536      15.61645300 
H      30.22985499      14.96630447      15.18235494 
H      25.96857753       9.31898637      25.91910103 
H      26.37003571      10.58372364      27.11839474 
H      26.82785894      10.80622511      25.40548525 
H      18.49727000      16.13818345      31.44975347 
H      18.59060990      17.92240018      31.57921132 
H      19.61607549      16.88836764      32.63324150 
H      19.51844284      30.09486372      27.48765712 
H      20.23436529      30.31625619      25.86525618 
H      21.10679841      30.89694888      27.31881030 
H      25.59151407      29.54092054      13.38825393 
H      23.93221219      29.91686342      13.93489663 
H      24.29193369      28.31665969      13.22527319 
H      25.21466214      16.77913177      10.08249971 
H      25.16410612      15.30961249      11.10528675 
H      26.69223779      15.78298427      10.28709129 
H      21.72830975       8.31568475      20.91498758 
H      21.48445533       9.00812172      22.54846246 
H      22.85967173       7.89829145      22.23912905 
H      21.55898000       8.17557403      24.86902150 
H      21.20552342       8.37294376      26.60992338 
H      22.50071873       9.34963720      25.84111027 
H      19.78517731      11.56330697      30.52226860 
H      18.47741168      12.39160627      29.62093144 
H      19.33132375      13.23835946      30.95189066 
H      19.06275882      20.14416455      33.02366592 
H      18.87243842      21.83552801      33.58101320 
H      20.33952053      21.34476146      32.66937584 
H      19.48556915      28.02939285      30.10089819 
H      19.35228184      27.19279782      31.67886140 
H      18.16830882      26.84228783      30.38006598 
H      22.41676218      33.14651039      23.42425538 
H      23.23220865      31.67980470      24.06870594 
H      21.70707162      32.26053356      24.80862125 
H      23.82478218      31.57954558      16.75729905 
H      23.80123186      32.77071576      18.09798741 
H      22.29508447      31.89144409      17.65398394 
H      26.57137725      26.35071844      10.21438919 
H      27.09000993      26.21560953      11.93036502 
H      25.99383389      27.53929118      11.42239720 
H      26.70956448      21.08801763       8.88384182 
H      24.97195462      20.77968733       9.23468732 
H      26.18997840      19.47199991       9.45548548 
H      25.99275317      12.72220458      11.55002319 
H      25.95860798      11.07194210      12.24332063 
H      26.77072510      12.40780902      13.13016184 
H      24.24598619       8.16489525      16.62115419 
H      22.63003451       8.95015212      16.57464237 
H      23.31418335       8.37639293      18.13834386 
H       8.81664705      23.39773187      14.72349077 
H       9.54017505      23.61401438      16.35274927 
H       9.10357938      21.97960582      15.77886176 
H       9.61715491      19.16838721      12.40262170 
H      10.38850151      20.53000613      13.29479807 
H       9.28416099      19.41265819      14.14261176 
H       8.38695736      16.31748760      16.19506929 
H       9.86322610      16.90854731      15.35757732 
H       8.92209311      18.01453640      16.39946765 
H       7.96915619      19.27416712      18.83831405 
H       7.15650628      18.52113802      20.24406051 
H       8.54217275      17.69673848      19.44513951 
H       8.17086068      21.99430913      18.34362769 
H       7.45475532      23.27469702      19.37146679 
H       8.40253036      21.93079572      20.11449339 
H      12.17661955      28.48263529      11.90759329 
H      10.80465969      27.82136722      12.85026529 
H      11.62872469      26.80005697      11.63412802 
H       7.83317483      26.76220409      22.88378820 
H       8.62169599      27.84692730      21.69459688 
H       8.78670873      28.17167750      23.45027398 
H       7.19385981      16.43112672      24.79423227 
H       7.42293692      18.08612589      25.43498743 
H       7.75805943      16.67003725      26.47677130 
H       9.84952568      11.35111553      16.04470213 
H       9.77774571      11.42747391      17.82908281 
H      10.66734452      10.10097059      17.02937645 
H      13.88215100      17.44895268       7.93241606 
H      12.50624079      18.40831959       8.56678433 
H      12.75319050      16.72241953       9.12041756 
H      11.01291502      27.18219208      16.49506553 
H      10.33654230      26.95149909      18.14532807 
H      10.70376692      25.53199146      17.12454057 
H       8.95380683      23.12274533      23.74859764 
H       8.81337080      21.40384556      24.25932790 
H       9.07865318      21.80851202      22.53369626 
H       9.79292016      14.11996250      20.60296860 
H       9.78297145      15.89814917      20.38529700 
H       9.47104661      15.19291587      22.01018571 
H      12.54860435      14.94132679      12.60732918 
H      11.84130875      15.60908575      14.10780047 
H      12.17624829      13.84767872      13.99123914 
H      12.94189879      21.38340343      10.86086664 
H      12.63684078      23.08488124      11.36155054 
H      12.22772602      21.73498774      12.46627627 
H      15.44418745      25.43951168       9.20772055 
H      15.41505733      23.96128130      10.24016053 
H      16.88725266      24.37594564       9.30755247 
H      13.64836210      30.61645493      19.37918263 
H      12.01859602      30.64731848      20.13015972 
H      12.53622116      29.23228295      19.13717684 
H      10.89431764      22.32268853      28.29437798 
H       9.50029773      21.19685204      28.21699190 
H      10.20593684      21.87507699      26.70706132 
H      11.12804897      10.66292595      22.12038792 
H      11.50394293      12.40780195      22.32309653 
H      12.18101392      11.21054804      23.46207708 
H      15.22019660      12.99644894      10.30234818 
H      14.96456914      13.44349156      12.02761726 
H      16.25625817      12.29061845      11.58375945 
H      17.10760340      20.15841411       7.49506770 
H      16.16964184      21.47033830       8.27762565 
H      16.06870392      19.80153507       8.92023554 
H      14.70948616      30.86120068      14.72606359 
H      13.60745260      30.26462083      16.00888342 
H      14.19167155      29.13839137      14.74687451 
H      10.29325159      25.34536576      26.67159451 
H      10.92961467      26.35873209      25.34439527 
H      10.95140841      26.97260729      27.03036464 
H      10.80053079      13.06215142      25.29641966 
H      10.74445846      14.80098381      25.72863291 
H      10.91304555      13.55702631      27.01501737 
H      14.36978031      10.71573181      13.99926189 
H      13.93832332      10.91662425      15.72485277 
H      14.67984383       9.38139208      15.15379894 
H      21.37345379      16.99495733       8.16418395 
H      22.50984138      16.27204029       9.34768308 
H      22.33175579      18.05145998       9.25978998 
H      19.90244670      30.71949501      13.28384092 
H      21.41578296      29.75867116      13.29631639 
H      20.65635745      30.23782499      14.84540593 
H      17.10876089      29.94456680      26.75524987 
H      16.65443915      28.37959444      27.48975813 
H      15.42326826      29.67172464      27.29333970 
H      14.04771021      16.06103601      30.52699616 
H      15.48459941      17.11553047      30.73457851 
H      15.62815099      15.58590055      29.81594999 
H      17.84150140       7.88723963      19.15659576 
H      18.95718292       8.43850235      20.44889485 
H      19.27877497       8.88515038      18.74485434 
H      19.65696285       8.36814218      14.28628254 
H      18.32730047       9.38562814      14.94546025 
H      19.27154350       8.32253128      16.03576390 
H      21.81794983      13.54117135      10.01099430 
H      21.29505574      11.84270511      10.23419926 
H      22.58042018      12.52688220      11.28888551 
H      21.97506862      21.86106565       7.29888366 
H      20.50896504      21.40032465       8.22767060 
H      21.74460851      20.16901230       7.83897645 
H      21.53863637      27.25020538       9.29254952 
H      22.76240267      26.86582593      10.54659109 
H      21.45338598      28.04989864      10.89260023 
H      19.02341307      32.00295897      15.93010881 
H      18.71978238      33.08792545      17.32333412 
H      17.64614342      31.68095760      17.02129123 
H      17.24283037      32.82614195      22.87696561 
H      18.73723163      31.89830016      23.22808191 
H      17.22757913      31.56273484      24.14870798 
H      15.14173165      27.60006114      29.30125872 
H      14.50832308      26.49713525      30.56278924 
H      13.93978568      26.33920743      28.86399935 
H      14.61654651      19.59425618      31.56265693 
H      14.15205171      21.24922466      32.06318298 
H      15.87354381      20.87490229      31.70074403 
H      15.11640358      11.26840387      28.77263829 
H      14.29254822      12.58073911      27.85900767 
H      15.14352198      12.94866977      29.39395501 
H      17.36957157       8.33311793      22.76701045 
H      16.54487864       8.19192643      24.35042583 
H      18.19967191       8.89496265      24.26393319 
