646
Properties=species:S:1:pos:R:3 i=104 optimized=T E=-10337.6893915842 pbc="F F F" jobid=246_80-Ag-80_1-000007-PBE
Ag      21.84312470      20.18036735      20.89643457 
Au      24.68681891      20.20224968      21.81857642 
Ag      20.43064039      22.69406631      20.43089388 
Ag      19.69542301      20.93866213      22.72536993 
Ag      19.99672875      18.12218138      21.86479918 
Au      21.08419349      23.49690463      23.11578005 
Au      20.32679217      21.72731975      25.42096397 
Au      20.67839501      18.91880558      24.62792800 
Ag      20.95829507      16.13241650      23.72573943 
Au      21.85385384      16.08936610      20.92917904 
Ag      22.73157773      16.11543693      18.11502979 
Ag      23.06242452      18.88580389      17.23154948 
Ag      23.28484788      21.70209515      16.35537956 
Ag      22.61289051      23.45487550      18.59095675 
Ag      21.81998266      25.18891156      20.86330059 
Ag      23.29615396      22.69881996      21.33919325 
Au      22.56370166      20.97751095      23.63177360 
Au      22.86788139      18.14141957      22.80846483 
Ag      23.75274880      18.14574848      19.98431722 
Ag      24.03691706      20.93726361      19.08872883 
Ag      20.89875951      13.99541499      19.04963202 
Ag      21.80034215      14.03477193      16.23427190 
Ag      22.11148991      16.84053766      15.32405883 
Ag      22.34770060      19.67367642      14.42616379 
Ag      22.63044655      22.48343376      13.59675262 
Ag      21.95054188      24.28700506      15.86610645 
Ag      21.16249900      26.03378164      18.12770922 
Ag      20.42987951      27.75448911      20.42989648 
Ag      25.38908576      22.48663439      14.50621314 
Ag      24.78524937      24.26012160      16.71899578 
Ag      23.96336191      25.95253078      18.98948137 
Ag      23.17367358      27.73436269      21.31762586 
Ag      22.53500451      26.07922874      23.61021004 
Au      21.75082509      24.32353968      25.80912758 
Ag      20.95137668      22.54654772      28.12802027 
Ag      21.36005864      19.74958329      27.40903041 
Ag      21.63432011      16.94893389      26.50076512 
Ag      21.86020956      14.11514612      25.58255670 
Ag      22.83055969      14.00580261      22.84551793 
Ag      23.70470183      14.07094462      20.01341997 
Ag      24.57150822      14.08746289      17.15898514 
Ag      24.93552865      16.80374459      16.23007384 
Ag      25.13468514      19.63214186      15.39570019 
Ag      23.59190704      18.95287962      25.61420752 
Ag      23.74424479      16.16356834      24.68157345 
Ag      24.73416669      16.06380692      21.88126643 
Ag      25.54157346      16.09917043      19.02662431 
Au      25.94479765      18.86053244      18.11872373 
Ag      26.11712888      21.67199376      17.23439907 
Au      25.49300409      23.46606656      19.48237926 
Au      24.64839144      25.19959766      21.71079796 
Ag      24.04379213      23.54580363      24.07270168 
Au      23.18393436      21.82426972      26.31419195 
Ag      26.19258218      22.72798167      22.26502054 
Au      25.45429160      21.00217419      24.59928886 
Ag      25.70982821      18.15273991      23.71599347 
Ag      26.58572732      18.14645966      20.87076781 
Ag      26.90104276      20.93527694      19.99506287 
Ag      27.53353414      20.19937577      22.73228100 
Ag      27.48540840      15.30865036      21.24430775 
Ag      28.38273070      17.39922943      18.66901892 
Ag      28.66475252      20.04320743      17.73666291 
Ag      28.29585495      23.21661360      18.83854306 
Ag      27.60107986      24.97823406      20.94852591 
Au      26.62193277      24.88879952      24.27259018 
Ag      25.87723941      23.31289666      26.45712552 
Au      25.63034212      20.01122708      27.38943748 
Ag      25.81381832      17.33991851      26.66281544 
Ag      26.67606023      15.42649560      23.94769851 
Au      28.43907680      17.52177743      22.95803932 
Ag      29.24259927      19.38552698      20.62962644 
Ag      28.95670220      22.35233527      21.54899686 
Ag      28.00588816      22.32585787      24.55926497 
Ag      27.70384086      19.34573516      25.44290650 
Ag      25.53467952      13.35390889      22.21454536 
Ag      26.35043842      13.33624004      19.30653421 
Ag      27.30487047      15.17176268      16.99232398 
Ag      27.52316185      17.99183934      15.91057092 
Au      27.65947071      20.85243256      14.98498758 
Ag      27.63431445      23.73122825      16.00133142 
Ag      26.80304754      25.66853926      18.19794759 
Au      25.89338185      27.42910425      20.48650422 
Ag      25.17692884      27.34463703      23.46014561 
Ag      24.33270309      25.75159085      25.85516568 
Au      23.40232487      24.05276542      28.09483963 
Ag      23.40832717      21.16253861      29.02666596 
Ag      23.55851342      18.19096691      28.38084241 
Ag      23.73542231      15.31330184      27.43914505 
Ag      24.67853113      13.51243348      25.09634256 
Ag      24.13858712      11.62595310      15.39292276 
Au      23.93488132      14.80989371      14.40603702 
Ag      24.19087249      17.58242509      13.48466052 
Au      24.45038876      20.40172264      12.69567685 
Ag      25.39416019      23.12858947      11.51866272 
Au      24.07222553      25.01398898      14.03140923 
Ag      23.31584754      26.78205814      16.25742817 
Au      22.56163994      28.44063691      18.56520674 
Ag      22.37872319      30.63578136      20.79863143 
Au      21.11040929      28.57467556      23.17239429 
Au      20.30273256      26.84455619      25.38647257 
Ag      19.61524581      25.14355464      27.67987507 
Ag      19.25074823      23.47949047      30.39126916 
Ag      19.23191330      20.41055883      29.27006311 
Au      19.44499282      17.68422431      28.29418145 
Au      19.74270875      14.89985873      27.42777376 
Ag      20.32228967      11.82973054      26.91464445 
Ag      20.99434242      11.95903345      23.76508362 
Ag      21.84599854      11.96776190      20.95583672 
Au      22.74560440      12.05754621      18.16107522 
Ag      29.48324194      14.44397649      23.34356884 
Au      31.25031892      18.41322501      18.07829561 
Ag      30.49944620      24.86508087      20.19237146 
Ag      28.54022301      24.69482238      26.63129938 
Au      27.92602666      18.25132126      28.66728186 
Ag      28.78548015      27.60483486      19.19930820 
Ag      30.13276179      18.85603798      14.92257669 
Ag      28.03254963      11.91707001      21.69518879 
Ag      25.31876273      16.43459156      29.96254682 
Ag      25.95997272      26.00638050      28.33524610 
Ag      26.41809268      26.54890005      15.28281143 
Ag      23.11789311      28.54780067      25.52562970 
Au      21.69312209      19.01895617      30.66258292 
Ag      23.86852162      11.05528093      23.35136154 
Ag      26.82753941      15.72122712      13.95904361 
S      29.66921422      22.57716835      26.40057377 
S      29.39957024      18.11610102      26.84079866 
S      30.69188843      16.45915006      22.81719727 
S      31.63586027      19.77596509      19.95202614 
S      30.98794612      23.64756547      22.20421551 
S      27.90115303      26.93915179      27.25542423 
S      30.55578799      26.28404346      18.24473062 
S      31.15463011      17.04603108      16.15495725 
S      28.76050286      12.23599524      23.97100037 
S      26.66505676      18.31265984      30.66333523 
S      27.98787149      26.48970829      22.96503723 
S      29.78459827      22.24654922      17.09011192 
S      28.96786011      15.02175578      19.19514084 
S      26.60238606      14.95208950      26.41411697 
S      26.10657281      22.07682862      28.67049701 
S      24.09343928      25.61666396      29.81151519 
S      27.26913883      29.34933836      19.87690694 
S      29.38949923      20.44184347      13.28141111 
S      27.41955460      11.09702923      19.53310667 
S      24.01112453      14.44537550      29.75765658 
S      22.66991495      21.04140574      31.39688851 
S      24.94551882      29.63066844      24.35198797 
S      28.18304948      25.29805452      14.16490818 
S      27.84080926      13.76836928      15.01559848 
S      24.37773167      11.12850720      25.72656306 
S      20.57659566      16.96141692      30.39070785 
S      21.31891739      28.25906216      27.13678178 
S      25.03386072      28.50346942      15.69849108 
S      26.19960670      17.12375344      12.07586301 
S      23.32784235       9.98321111      21.24748353 
S      20.14719337      10.11738246      25.23169926 
S      20.71738911      13.17377952      28.88321239 
S      18.21395581      21.49674319      31.27386122 
S      20.40144941      25.55100318      30.00910327 
S      21.04642581      31.02331590      22.76172356 
S      23.87876754      30.48739838      18.91991175 
S      24.62136552      25.39629999      11.63313984 
S      26.36626587      20.94499120      11.24886388 
S      24.03106862      12.62714264      13.21112409 
S      24.47144266      10.44501372      17.46326482 
C      31.35972590      22.91205403      25.76973681 
C      30.80359240      19.21398020      27.27746718 
C      31.69757899      16.88316564      24.29125489 
C      32.80348344      18.84295431      21.01558036 
C      32.53837534      22.70763724      21.91999288 
C      28.99662539      27.44364854      28.64987244 
C      32.05622293      27.34333023      18.41578184 
C      32.88600720      16.99372629      15.52443074 
C      30.28694755      11.20883665      24.10468174 
C      27.76443355      17.58772259      31.95195171 
C      29.63786907      26.69231890      23.74467464 
C      31.55868905      22.58220697      17.44234408 
C      30.78414034      14.78198489      19.37739873 
C      28.23789680      14.48134964      27.11691008 
C      27.73172351      21.93003741      29.51323087 
C      24.71370799      24.55488401      31.17270612 
C      27.87805897      29.96825442      21.49412949 
C      30.48451785      21.90578203      13.43411619 
C      28.91064423      11.27303309      18.47377894 
C      25.20605900      13.07086562      29.50782303 
C      24.08151730      20.55718468      32.46562628 
C      26.26224780      29.98488440      25.58190565 
C      29.77420653      26.14965429      14.50259737 
C      29.64456248      13.82238921      14.67348887 
C      26.02304931      10.33959535      25.94386061 
C      19.24591075      17.04387467      31.65518167 
C      20.39571340      29.84463578      27.02294118 
C      24.63512883      29.06123551      13.99061627 
C      25.64941743      15.88575428      10.83039280 
C      22.22240263       8.60859884      21.77284854 
C      21.39171721       8.84350158      25.68874459 
C      19.48026685      12.70034193      30.15017257 
C      19.10470438      21.12999346      32.84024241 
C      19.35855369      26.87521106      30.73551476 
C      22.09095366      31.98712830      23.92474591 
C      23.36471605      31.71353906      17.66033495 
C      26.09329372      26.45326878      11.33575531 
C      25.97808171      20.34132864       9.56369714 
C      25.64611734      12.26327491      12.41444026 
C      23.67834065       8.79927496      17.32922596 
Au      19.03433529      20.15630964      19.99722134 
Ag      16.18687809      20.14150364      19.07871163 
Ag      21.17918215      20.94266009      18.17339095 
Ag      20.89481142      18.12888135      19.04177105 
Ag      19.76788567      23.48726338      17.74244750 
Ag      20.51764955      21.71577763      15.48200732 
Ag      20.23795033      18.90873031      16.29797417 
Ag      19.96579847      16.10664403      17.20737694 
Ag      19.03731868      16.06215760      19.99303288 
Ag      18.17244760      16.09559743      22.80764179 
Au      17.83680820      18.85608338      23.70450663 
Ag      17.56802248      21.68623368      24.55099296 
Ag      18.24752019      23.46114809      22.29174609 
Ag      19.03287009      25.19242452      20.01967348 
Ag      17.57069362      22.65929400      19.55291358 
Ag      18.32272352      20.93485255      17.28870357 
Ag      18.04176957      18.13810670      18.13256473 
Ag      17.13501661      18.11121848      20.93128062 
Au      16.84085524      20.91290925      21.81762918 
Ag      20.03650330      13.98499905      21.89755715 
Au      19.12720394      14.04239215      24.67560261 
Ag      18.77957450      16.84528453      25.60068356 
Ag      18.51522783      19.68896859      26.51289969 
Au      18.20876492      22.47718037      27.34327351 
Ag      18.90811692      24.27249371      25.03571403 
Ag      19.70485162      26.03821259      22.72791853 
Ag      15.49161703      22.42386099      26.40941296 
Ag      16.07509775      24.23129578      24.18339102 
Ag      16.87324724      25.94851669      21.86913823 
Ag      17.69457866      27.71733615      19.62282370 
Ag      18.36471680      26.03626050      17.28737211 
Ag      19.11896525      24.28904601      15.08390848 
Ag      19.87211463      22.48768880      12.76345037 
Ag      19.52996946      19.69534290      13.52037076 
Ag      19.29845431      16.91999796      14.45383988 
Ag      19.06159262      14.09940376      15.36949504 
Ag      18.08919274      13.98960522      18.11525331 
Ag      17.23253129      14.03105093      20.93099851 
Ag      16.41559084      14.03111651      23.77643127 
Ag      15.99241413      16.79306951      24.70460185 
Ag      15.73457541      19.58906586      25.54732963 
Ag      17.34379058      18.93189790      15.34912974 
Ag      17.18148291      16.13547803      16.30228042 
Ag      16.15641321      16.04720444      19.07425007 
Ag      15.37132846      16.04746342      21.88340836 
Ag      14.94277820      18.82140027      22.79809401 
Ag      14.78748154      21.62280735      23.68357097 
Ag      15.37128493      23.46133819      21.41527228 
Ag      16.22060482      25.16792943      19.15441506 
Ag      16.84402288      23.49286033      16.83157175 
Au      17.70673721      21.77120779      14.64118147 
Au      14.70773430      22.67359273      18.65490750 
Ag      15.42751662      20.94206438      16.33803512 
Ag      15.18976589      18.10438128      17.22989297 
Ag      14.27847761      18.06725693      20.03323796 
Ag      14.01212300      20.88583922      20.93114053 
Ag      13.34288426      20.13883635      18.22193377 
Ag      13.34288695      15.25787172      19.69857187 
Ag      12.55631668      17.25634618      22.26138088 
Ag      12.28511469      19.92979365      23.19390071 
Ag      12.58881454      23.17488968      22.10683719 
Ag      13.26463189      24.93986065      19.99623062 
Ag      14.27345383      24.89070337      16.76885785 
Ag      15.00546524      23.31192091      14.53355362 
Au      15.19384954      19.94022993      13.57441079 
Au      15.07328558      17.31301892      14.35558692 
Ag      14.22925763      15.36031743      17.03639712 
Ag      12.39435344      17.47064072      17.90568281 
Ag      11.66380970      19.30673316      20.36132336 
Ag      11.93870598      22.31904144      19.40299303 
Ag      12.88738858      22.31264504      16.41095922 
Au      13.13378037      19.26325372      15.56487687 
Ag      15.38123048      13.32472365      18.78967804 
Ag      14.55603850      13.29330035      21.66967292 
Au      13.77581114      15.10503656      23.98390387 
Ag      13.36802591      17.89335148      24.99182703 
Ag      13.19042650      20.73195916      25.93874818 
Ag      13.25853681      23.62024141      24.95285600 
Ag      14.05313573      25.62817787      22.73687647 
Ag      14.90518507      27.40800822      20.40062873 
Au      15.81857506      27.37546574      17.47688205 
Ag      16.52844948      25.74631340      15.10418994 
Au      17.39801593      23.94038401      12.85446422 
Ag      17.42989478      21.02810450      11.92702492 
Ag      17.28834556      18.11023421      12.59716028 
Ag      17.16000559      15.29352218      13.55497331 
Ag      16.26255585      13.46823478      15.90411884 
Ag      16.71872980      11.62794342      25.56840909 
Ag      16.94343129      14.77137869      26.56352437 
Ag      16.72829006      17.57844581      27.46516893 
Ag      16.39837457      20.38619102      28.30979378 
Ag      15.49829992      23.21969258      29.32576725 
Au      16.77989893      25.04062403      26.84865965 
Ag      17.56318885      26.72715347      24.61688104 
Ag      18.29416712      28.47407368      22.36520731 
Au      18.39437618      30.62219472      19.93909888 
Ag      19.75673405      28.53499146      17.66502749 
Ag      20.52563955      26.81595392      15.43714898 
Au      21.21857192      25.01092886      13.23292612 
Ag      21.52078036      23.57561435      10.46222606 
Ag      21.66956384      20.46876505      11.69109662 
Ag      21.43270403      17.66803389      12.61703327 
Ag      21.13716539      14.86899310      13.47517801 
Ag      20.42196018      11.79440382      13.98776680 
Ag      19.95905809      11.96144762      17.18567517 
Ag      19.12765485      11.98328934      20.01227886 
Ag      18.20195011      11.97718507      22.79175067 
Ag      11.36061236      14.48542261      17.57420528 
Ag       9.73835495      18.43128895      22.74544163 
Ag      10.38196409      24.82031384      20.81087938 
Ag      12.37569424      24.74070913      14.36254302 
Ag      12.98383696      18.27533379      12.39208199 
Ag      12.02802368      27.56198016      21.90396825 
Ag      10.69276395      18.66542624      25.93839052 
Ag      12.83627299      11.94810336      19.19516815 
Au      15.55675262      16.53815775      10.78248446 
Ag      14.94270333      26.00552242      12.63143663 
Au      14.33221144      26.64947053      25.56879437 
Ag      17.75903381      28.59637676      15.34745753 
Ag      19.32378628      18.91101994      10.48711246 
Ag      17.07364318      11.02646398      17.65090427 
Ag      14.03966123      15.71175561      27.02622253 
S      11.23673267      22.63993194      14.56924646 
S      11.37551677      18.14778262      14.19419527 
S      10.10729454      16.46361772      18.11953640 
S       9.29183655      19.90068905      20.89649106 
S       9.95300713      23.67885454      18.74311346 
S      13.05212937      26.97262150      13.77151087 
S      10.28050472      26.16705124      22.80498126 
S       9.56505890      16.96970458      24.64840951 
S      12.10611947      12.29077397      16.92020107 
S      14.11551074      18.33454392      10.24959506 
S      12.96042476      26.57786069      18.07898698 
S      11.20834807      22.12981632      23.92707605 
S      11.81541976      14.93446672      21.69336445 
S      14.33166070      14.94468822      14.54847863 
S      14.73575021      22.01033703      12.34869102 
S      16.76772671      25.54111178      11.12756273 
S      13.54744818      29.30133276      21.27830765 
S      11.49857418      20.12194107      27.65872437 
S      13.46318880      11.08111929      21.33702440 
S      16.99040581      14.71386030      11.12067712 
S      18.23762319      20.89613550       9.59919728 
S      15.94770886      29.66120529      16.59643638 
S      12.81179649      25.27798754      26.75504702 
S      13.02137225      13.78630553      25.91463912 
S      16.49215103      11.07640910      15.28889441 
S      20.62753915      16.86473676      10.41209684 
S      19.58888882      28.42534244      13.77639663 
S      15.68618009      28.38420247      24.70838108 
S      14.71290922      17.15636398      28.84610521 
S      17.67819420       9.98749098      19.75557388 
S      20.70562384      10.10812015      15.67238376 
S      20.04488054      13.14551325      12.04477976 
S      22.53089425      21.57504091       9.60983330 
S      20.46212924      25.67676388      10.99408769 
S      19.78311196      31.01681643      18.08150658 
S      16.96009572      30.52695365      21.79756618 
S      16.33544050      25.47433357      29.24503229 
S      14.40805658      21.10406162      29.62703844 
S      16.75559065      12.58814349      27.76876816 
S      16.38376783      10.44202528      23.51067125 
C       9.55567519      22.99616279      15.21150343 
C       9.99860803      19.29548888      13.80839354 
C       9.05036705      16.83614318      16.66609317 
C       8.10759418      19.00784572      19.81406355 
C       8.36396991      22.78584715      18.95121156 
C      11.92698049      27.50861400      12.41192466 
C       8.75786935      27.19674045      22.65134544 
C       7.81404738      17.08112336      25.21760206 
C      10.58508616      11.25671338      16.77804619 
C      12.97180885      17.61473969       8.99999555 
C      11.27393085      26.86927874      17.40284202 
C       9.40743108      22.45339077      23.71852346 
C      10.00223591      14.80815464      21.40974556 
C      12.68964987      14.59726308      13.79404299 
C      13.10505536      21.85984158      11.51669021 
C      16.09421617      24.47192734       9.79639997 
C      12.88106545      30.01402467      19.72073092 
C      10.38862482      21.58645508      27.65484597 
C      11.96849341      11.22473950      22.39581565 
C      15.87609595      13.25422098      11.20354326 
C      16.89699261      20.32029055       8.48363938 
C      14.56799423      29.99120842      15.43519343 
C      11.15429352      26.03154783      26.52566168 
C      11.20324516      13.90024121      26.12092845 
C      14.84223400      10.28586196      15.12314053 
C      21.96556884      17.25797348       9.21088107 
C      20.49056238      30.01302273      14.00434748 
C      16.07833968      29.37233838      26.21002031 
C      15.28068510      15.97518987      30.13892569 
C      18.79783995       8.62056560      19.23994734 
C      19.45378318       8.81975814      15.28189121 
C      21.25251412      12.60490090      10.77208774 
C      21.62675789      21.17902218       8.05956855 
C      21.55726722      27.02878017      10.42058174 
C      18.78314143      32.06430904      16.95125941 
C      17.48262555      31.92849624      22.86208420 
C      14.91087215      26.59754625      29.52501761 
C      14.66141261      20.61063456      31.37676803 
C      15.12634219      12.19201385      28.52097607 
C      17.10511450       8.76564861      23.70608088 
H      31.85088363      21.94583423      25.59984555 
H      31.91911047      23.47320759      26.52643442 
H      31.33096612      23.47136300      24.82815643 
H      31.49997994      19.19737857      26.42976525 
H      31.30485059      18.81936364      28.16784847 
H      30.46561310      20.24192943      27.44756323 
H      32.07517852      17.90501309      24.16342039 
H      32.54265535      16.18729666      24.34848483 
H      31.10086233      16.82688543      25.20767199 
H      33.75193141      18.71343204      20.48305091 
H      32.38696005      17.87174631      21.30343586 
H      32.97139466      19.44873459      21.91493563 
H      33.37155180      23.41386535      21.83230632 
H      32.47446821      22.08845057      21.01919520 
H      32.70280640      22.06183074      22.79149467 
H      29.97844750      27.70553587      28.23841523 
H      29.11400919      26.64254203      29.38498796 
H      28.55994097      28.32403978      29.13550313 
H      31.97862937      28.17098571      17.70125417 
H      32.93613003      26.73573523      18.17424731 
H      32.15749954      27.74392266      19.42832820 
H      32.86241968      16.54164784      14.52574612 
H      33.48329398      16.36733874      16.19678239 
H      33.32383999      17.99401470      15.46554520 
H      29.99241343      10.15306318      24.12010257 
H      30.79075964      11.45990959      25.04528059 
H      30.96921659      11.38464942      23.26828109 
H      28.55930576      18.30762769      32.17791619 
H      28.20632109      16.64407271      31.62006911 
H      27.15922237      17.41566300      32.84990308 
H      30.22684521      27.36643445      23.11072094 
H      30.15258531      25.72942208      23.82587995 
H      29.49458977      27.13596904      24.73707759 
H      32.15900272      22.11634505      16.65179686 
H      31.84079301      22.15568562      18.41078202 
H      31.71114347      23.66788277      17.44328392 
H      31.25730137      15.00621867      18.41483180 
H      30.97113096      13.73946572      19.66063749 
H      31.17132787      15.45176353      20.15291092 
H      28.55321075      13.54428514      26.64380656 
H      28.12619774      14.34698437      28.19911620 
H      28.96703808      15.27453018      26.91900672 
H      27.92782349      22.87896418      30.02728851 
H      28.52670276      21.73568413      28.78592720 
H      27.67058288      21.11099701      30.23880329 
H      23.84106410      24.15553644      31.70422448 
H      25.31052456      25.17687859      31.84974749 
H      25.31588579      23.72530889      30.78536411 
H      28.72993690      30.63254003      21.30896207 
H      28.17229590      29.14240562      22.15138072 
H      27.06112563      30.52847833      21.96569156 
H      31.44515670      21.67311259      12.96086164 
H      30.63032488      22.18236836      14.48436108 
H      29.99927800      22.73830417      12.90951153 
H      28.60225802      11.05929135      17.44285892 
H      29.66904470      10.54854158      18.78979692 
H      29.31507346      12.29015738      18.51707675 
H      24.62563774      12.18755678      29.21359224 
H      25.73242236      12.87108622      30.44754848 
H      25.92390056      13.30135020      28.71335687 
H      24.60818688      21.48074341      32.73606997 
H      24.77134583      19.88646340      31.94219740 
H      23.69927006      20.07532325      33.37218576 
H      27.13243289      30.36771419      25.03508461 
H      26.55593616      29.08663833      26.13577339 
H      25.90322121      30.75178604      26.27728691 
H      29.77994084      27.11566697      13.98533845 
H      30.58135281      25.52062712      14.10806816 
H      29.92987438      26.30093391      15.57659316 
H      29.81374909      13.66071146      13.60296860 
H      30.11930314      13.01418699      15.24298243 
H      30.07999931      14.78019269      14.97820711 
H      25.93748678       9.26758907      25.73358612 
H      26.32573611      10.48249518      26.98830153 
H      26.77561347      10.78907307      25.28647382 
H      18.58252777      16.18690638      31.48490255 
H      18.67344633      17.97408841      31.57093330 
H      19.70031929      16.96761598      32.64961791 
H      19.44387773      29.72293255      27.55376680 
H      20.19922726      30.11942895      25.98097205 
H      20.98759044      30.62820046      27.51076393 
H      25.54714009      29.43467557      13.51091805 
H      23.90722428      29.87832147      14.06601665 
H      24.20556844      28.25103841      13.39130427 
H      25.22617746      16.43187268       9.97849249 
H      24.88873303      15.21222220      11.23993612 
H      26.51534468      15.30516793      10.49208192 
H      21.79253755       8.15950823      20.86930134 
H      21.41249079       8.96403835      22.42007946 
H      22.81638018       7.85585340      22.30370102 
H      21.45856571       8.11979743      24.86784823 
H      21.04630638       8.33314225      26.59483902 
H      22.37478875       9.29507381      25.86230899 
H      19.80698608      11.75668964      30.60332113 
H      18.48351348      12.57809413      29.71092929 
H      19.46779532      13.48643631      30.91460432 
H      18.81813222      20.12574040      33.17394102 
H      18.79502162      21.86406138      33.59276685 
H      20.19008700      21.17192341      32.70093204 
H      19.71745468      27.83034439      30.33339899 
H      19.48520454      26.86553285      31.82414470 
H      18.30142419      26.73692501      30.48220326 
H      22.17089063      33.00797666      23.53302402 
H      23.08719720      31.54454919      24.03105488 
H      21.59289901      32.01017709      24.90120951 
H      23.78192987      31.38870098      16.69921425 
H      23.79250933      32.68424102      17.93862706 
H      22.27392814      31.79129346      17.59580716 
H      26.37321647      26.34803920      10.28118178 
H      26.92941753      26.16137319      11.98068085 
H      25.81646975      27.49456976      11.53787050 
H      26.70780756      20.77757923       8.87109250 
H      24.96179358      20.61861570       9.26145721 
H      26.08849379      19.25000614       9.57623485 
H      25.71399017      12.84565023      11.48831030 
H      25.66732984      11.19370493      12.17519570 
H      26.48062375      12.51950390      13.07669016 
H      24.36527850       8.13543145      16.79091839 
H      22.72002788       8.85756555      16.80076525 
H      23.52987035       8.42793267      18.35065591 
H       8.98784577      23.53280245      14.44335486 
H       9.59748638      23.58580683      16.13368885 
H       9.06709925      22.03604729      15.41896439 
H       9.45717110      18.91087096      12.93644901 
H      10.37049720      20.30636754      13.60947838 
H       9.32440743      19.32060707      14.67338685 
H       8.28516074      16.05763560      16.57159108 
H       9.64740134      16.89457444      15.74943812 
H       8.56256196      17.80246839      16.84429908 
H       7.96867087      19.60520355      18.90454560 
H       7.14802674      18.91285241      20.33430902 
H       8.49067680      18.01826019      19.54174184 
H       8.19690896      22.18449172      18.04900287 
H       7.55478395      23.51752153      19.05246093 
H       8.39296731      22.12667368      19.82553663 
H      12.36741070      28.38524634      11.92290984 
H      10.96196865      27.78442853      12.85278589 
H      11.77572920      26.71671852      11.67301877 
H       7.88916096      26.56302305      22.86431076 
H       8.65819738      27.62615120      21.65044422 
H       8.80957998      28.00388341      23.39124440 
H       7.19358468      16.48069037      24.54221159 
H       7.45198906      18.11308901      25.22237568 
H       7.75262521      16.66822135      26.23119566 
H      10.07886307      11.51310252      15.84021811 
H       9.90249683      11.42126566      17.61655082 
H      10.88511918      10.20262851      16.75321335 
H      13.53560362      17.41805622       8.08088478 
H      12.18986954      18.35640082       8.79821739 
H      12.51359812      16.68836824       9.35731521 
H      11.38449796      27.30457181      16.40233983 
H      10.75167317      27.57234359      18.06288689 
H      10.71019663      25.93192829      17.34903888 
H       9.24956023      23.53798809      23.73801254 
H       8.87209785      21.97539074      24.54734795 
H       9.06362903      22.03378689      22.76645474 
H       9.77402716      13.78318294      21.09341345 
H       9.67891500      15.50982450      20.63342037 
H       9.49866253      15.03161770      22.35785993 
H      12.80472369      14.57738990      12.70409240 
H      11.97209899      15.37443531      14.07975588 
H      12.35764770      13.62080939      14.16612884 
H      13.18380578      21.09028994      10.74015452 
H      12.87452224      22.83177231      11.06324196 
H      12.32350046      21.60159493      12.23858271 
H      15.52099263      25.10154062       9.10625301 
H      15.45959578      23.67806604      10.20536544 
H      16.94426651      24.01812715       9.27200806 
H      13.65227584      30.67855856      19.31179763 
H      11.97745162      30.59144068      19.94456475 
H      12.66002246      29.23073074      18.98636758 
H      10.83900422      22.33446972      28.31916363 
H       9.40477538      21.29801250      28.04090775 
H      10.29079163      22.01315541      26.65045755 
H      11.21951136      10.49642293      22.06624918 
H      11.55406753      12.23897241      22.36334411 
H      12.27663232      10.99709001      23.42380797 
H      15.43448229      13.07552440      10.21722897 
H      15.09013034      13.38711231      11.95446970 
H      16.50658029      12.40232975      11.48830214 
H      17.34719787      19.86453225       7.59459684 
H      16.30974710      21.19738573       8.18620851 
H      16.23832023      19.59871436       8.97845150 
H      14.85502803      30.82697079      14.78642469 
H      13.68926626      30.27173495      16.02835490 
H      14.32652832      29.11171349      14.82867299 
H      10.42727997      25.35091286      26.98570274 
H      10.91505923      26.15816550      25.46371077 
H      11.12427923      26.99907810      27.03873964 
H      10.74225312      13.16576353      25.44957232 
H      10.82775977      14.89901036      25.87376092 
H      10.95661184      13.65336135      27.16012134 
H      14.53456343      10.37760092      14.07444582 
H      14.09579987      10.77249088      15.76079729 
H      14.92358293       9.22534852      15.38619749 
H      21.53415832      17.30072769       8.20422136 
H      22.70480991      16.44916189       9.25453922 
H      22.45642614      18.20965569       9.44369337 
H      19.86968797      30.83544797      13.63103912 
H      21.41334787      29.95992893      13.41398417 
H      20.74645568      30.18849637      15.05532992 
H      16.84575507      30.10334889      25.92673488 
H      16.46019425      28.73905831      27.01739804 
H      15.17455164      29.89703862      26.53938333 
H      14.40572191      15.47083228      30.56502644 
H      15.78469892      16.55189607      30.92371902 
H      15.97520649      15.23123696      29.73256341 
H      18.20440621       7.84780310      18.73800554 
H      19.25101202       8.19882931      20.14513823 
H      19.58908376       8.97398136      18.56918046 
H      19.76998216       8.29505210      14.37337084 
H      18.46216147       9.26224123      15.13538654 
H      19.42082591       8.11095738      16.11767043 
H      21.27746044      13.38272609       9.99929821 
H      20.90531394      11.66240240      10.33366731 
H      22.25156246      12.47158752      11.20167193 
H      21.88015110      21.93428946       7.30723006 
H      20.54412275      21.16106934       8.22692797 
H      21.96100492      20.19422296       7.71223004 
H      21.38967072      27.16952323       9.34607023 
H      22.61178335      26.79732952      10.60843040 
H      21.26446717      27.93679890      10.96205174 
H      19.33910558      32.16259784      16.01128528 
H      18.66253083      33.05211939      17.40962631 
H      17.80369469      31.61416551      16.75733964 
H      17.19514327      32.86846762      22.37770850 
H      18.56325146      31.91314965      23.04355689 
H      16.93796143      31.82784179      23.80901647 
H      15.21132418      27.61517400      29.24931998 
H      14.66511236      26.56566632      30.59301324 
H      14.04435678      26.29445211      28.92821932 
H      14.42612298      19.54175605      31.44760599 
H      13.96783711      21.18047639      32.00558912 
H      15.69302117      20.79043290      31.69965789 
H      15.11562412      11.12545132      28.77269830 
H      14.30342736      12.42417925      27.83673154 
H      15.01722322      12.78275894      29.43816405 
H      17.23274621       8.34986678      22.69921460 
H      16.39883798       8.14726025      24.27180824 
H      18.07020864       8.80173210      24.22332782 
