646
Properties=species:S:1:pos:R:3 i=109 optimized=T E=-10152.7215916116 pbc="F F F" jobid=246_80-Ag-60_2-000007-PBE
Ag      21.84056265      20.18946956      20.89321998 
Au      24.71816324      20.21527974      21.77721038 
Ag      20.45273713      22.69708053      20.43249749 
Au      19.70969595      20.97427440      22.73199006 
Ag      19.99096553      18.15001032      21.84620223 
Au      21.12345158      23.51611508      23.19895255 
Ag      20.37587388      21.77570735      25.45780738 
Ag      20.67228299      18.95877607      24.62803669 
Ag      20.91179580      16.14993705      23.73097602 
Au      21.84191019      16.11492381      20.92273647 
Au      22.74070491      16.19527345      18.11326073 
Ag      23.09291083      18.91203009      17.18898368 
Ag      23.31895010      21.71854947      16.30154661 
Ag      22.58984311      23.46512035      18.55702716 
Au      21.82280814      25.19367122      20.86773172 
Au      23.31314892      22.70018065      21.33199489 
Ag      22.56483574      20.99560215      23.62570738 
Au      22.83940755      18.16028694      22.76645358 
Ag      23.76726025      18.15299686      19.98264852 
Au      24.03880880      20.95228739      19.04647656 
Au      20.90469986      14.00321821      19.01709595 
Au      21.84915506      14.07818378      16.15532438 
Au      22.19365663      16.85407691      15.26362402 
Au      22.36216392      19.70424169      14.37694384 
Ag      22.62922460      22.54586733      13.54688230 
Au      21.95961566      24.33375123      15.80252301 
Au      21.19131331      26.10477287      18.08908395 
Ag      20.48391021      27.81205858      20.45633409 
Ag      25.39555210      22.50534745      14.44993723 
Au      24.75071331      24.27376408      16.69215755 
Au      23.98117692      25.94572823      18.93196634 
Au      23.19763892      27.71287305      21.30393707 
Ag      22.55466558      26.08843117      23.63297639 
Ag      21.80787084      24.32075995      25.88146275 
Ag      21.00600742      22.54398516      28.18303938 
Ag      21.33047940      19.77893795      27.41615456 
Ag      21.58735907      16.97019727      26.50570087 
Au      21.86636681      14.14570495      25.60695815 
Au      22.84500733      14.04503128      22.83878230 
Ag      23.67438383      14.06726031      20.01198355 
Au      24.58301051      14.09258714      17.16235844 
Ag      25.01167816      16.80450352      16.20072034 
Ag      25.20094818      19.63734956      15.37211654 
Au      23.52698896      18.97873774      25.51873106 
Ag      23.71231844      16.17678372      24.67570970 
Ag      24.75941405      16.03401978      21.88679920 
Au      25.55055304      16.10524447      19.04753473 
Ag      25.97749169      18.86488506      18.08069721 
Ag      26.10903642      21.68011552      17.22897678 
Ag      25.55448376      23.46740493      19.49733533 
Au      24.68990425      25.17883225      21.69421672 
Ag      24.03895596      23.53934903      24.09908477 
Ag      23.17634058      21.78294909      26.32229645 
Ag      26.23164904      22.73063185      22.26443459 
Ag      25.41124321      20.98564656      24.55237473 
Ag      25.66306839      18.14865066      23.67368190 
Ag      26.61290100      18.11191752      20.87585153 
Ag      26.94896922      20.92988505      19.97342273 
Ag      27.55573055      20.16065294      22.69117810 
Ag      27.46415363      15.23789186      21.24491274 
Ag      28.35323244      17.34316828      18.68777247 
Ag      28.63873559      19.97525397      17.74872099 
Au      28.40687445      23.25922076      18.82461655 
Au      27.75918707      24.94737273      20.88453314 
Au      26.64923758      24.85313084      24.21881425 
Ag      25.89370886      23.32337197      26.39222297 
Ag      25.59871249      20.07640165      27.30499454 
Ag      25.76420825      17.33859091      26.57017362 
Ag      26.65469570      15.39466519      23.94529290 
Ag      28.43779342      17.47075016      23.00993330 
Ag      29.29002358      19.34364656      20.58626065 
Ag      29.02604791      22.31942806      21.56716758 
Au      27.96862204      22.26337050      24.53445416 
Au      27.64383371      19.29496341      25.39591588 
Ag      25.50264204      13.25962709      22.23485008 
Ag      26.29704644      13.27373116      19.30808518 
Ag      27.32240408      15.10873694      17.05712880 
Ag      27.59948424      17.95118204      15.87789762 
Ag      27.73679448      20.86057231      15.03716101 
Au      27.48348864      23.78021773      15.95923643 
Ag      26.81164198      25.66688358      18.16635546 
Au      25.90514716      27.42975010      20.37144021 
Ag      25.21316667      27.33366638      23.42878077 
Au      24.34080490      25.79842769      25.83757180 
Ag      23.52406913      24.01460738      28.10687227 
Ag      23.37856664      21.11583585      29.10771099 
Au      23.56739718      18.21831290      28.29282069 
Ag      23.68586640      15.31544326      27.49388528 
Ag      24.68118177      13.53920353      25.13399863 
Ag      24.21230291      11.70032586      15.35229782 
Au      24.05484459      14.80245151      14.32257631 
Ag      24.23882208      17.58767469      13.44811828 
Au      24.42827193      20.44003505      12.67981453 
Au      25.50963497      23.33061737      11.52634133 
Ag      24.10421040      25.10015075      13.97752598 
Ag      23.33448395      26.84730550      16.20930121 
Ag      22.62935607      28.52519407      18.54036371 
Ag      22.39749932      30.58262817      20.90028508 
Ag      21.20357739      28.63330991      23.22154218 
Ag      20.34426295      26.85809352      25.44161062 
Au      19.62511101      25.07062486      27.65363529 
Au      19.42237623      23.57421793      30.55063848 
Ag      19.16463360      20.47515807      29.21690326 
Au      19.36751515      17.72252463      28.30099938 
Au      19.66415930      14.95817549      27.39476481 
Au      20.54514312      11.85776439      27.15930200 
Au      21.05919550      11.99325905      23.75234389 
Ag      21.84507168      11.98317145      20.92742427 
Au      22.70689425      12.03094695      18.11682090 
Ag      29.51472915      14.48928759      23.26870736 
Ag      31.13840572      18.36676647      18.08517531 
Ag      30.68497428      24.76567867      20.22644190 
Au      28.55388008      24.87573474      26.73014337 
Ag      27.84817467      18.39265288      28.50821360 
Ag      28.91708237      27.47816904      19.24123464 
Au      30.22750272      18.65658719      14.76985300 
Ag      28.03211544      11.91877956      21.64512666 
Ag      25.35489050      16.60741615      29.94110978 
Au      25.80645006      26.40784327      28.35489777 
Ag      26.49346480      26.64071190      15.23800084 
Au      23.20144278      28.73962963      25.56455603 
Ag      21.62167693      18.99860892      30.45236148 
Au      23.99087915      10.83228127      23.37014878 
Au      27.04572799      15.73878191      13.82318988 
S      29.50990002      22.74645588      26.45110565 
S      29.43880742      18.18221484      26.71001141 
S      30.72719292      16.49788264      22.73802359 
S      31.68980698      19.74590610      19.97088086 
S      31.11352464      23.53630798      22.24861581 
S      27.74890395      27.05327038      27.15899608 
S      30.78268120      26.24714252      18.32600492 
S      31.19237711      16.96714059      16.11230034 
S      28.84647842      12.26159478      23.88993344 
S      26.69948294      18.50250282      30.61428170 
S      27.95604427      26.45364769      22.85722083 
S      29.74233790      22.15550471      17.08105052 
S      29.00152999      14.97311790      19.21190603 
S      26.64033862      14.95896197      26.41820225 
S      25.83266794      22.18731808      28.64043552 
S      23.93875187      25.92617093      29.68633490 
S      27.37869876      29.26198029      19.79360846 
S      29.38513382      20.24432812      13.25919241 
S      27.37416414      11.04453233      19.51238286 
S      24.12199959      14.54894451      29.82472468 
S      22.61183177      20.98214331      31.47273521 
S      24.92048221      29.66979741      24.22124993 
S      28.25770196      25.29612839      14.20315025 
S      27.86733759      13.85221424      14.98719715 
S      24.54541258      11.10650384      25.65037498 
S      20.22298232      17.00241933      30.48135220 
S      21.44716675      28.34216335      27.09331665 
S      25.05534982      28.53649789      15.66212534 
S      26.38892229      17.34741908      12.22028734 
S      23.40423008      10.05032003      21.22390866 
S      20.32105909      10.29138564      25.42255568 
S      20.68806057      13.36225966      28.96392872 
S      18.37857924      21.62213206      31.32333100 
S      20.40532964      25.61946793      29.91698710 
S      20.99173521      31.08164222      22.79687768 
S      23.92036182      30.57384560      19.03228481 
S      24.74559588      25.55025858      11.59565137 
S      26.34723309      21.13906675      11.31846146 
S      24.16134620      12.64521876      13.12859099 
S      24.36605682      10.39819965      17.38721950 
C      31.22279406      23.04028078      25.86692795 
C      30.79316843      19.36443293      27.07596434 
C      31.78675684      16.86387233      24.19236455 
C      32.88265359      18.79794642      20.99281043 
C      32.64743045      22.55834552      22.02357458 
C      28.85831212      27.71639173      28.46827051 
C      32.23129702      27.35684206      18.58448754 
C      32.94634658      16.91603218      15.55176865 
C      30.39234392      11.25946279      23.97499049 
C      27.87987349      17.81849465      31.85485552 
C      29.64627792      26.59575193      23.55487907 
C      31.53243401      22.39820873      17.42153878 
C      30.82043999      14.72890891      19.34657923 
C      28.32257994      14.51237277      27.02022334 
C      27.35501301      22.26441683      29.67368989 
C      24.59952439      25.05210555      31.16089481 
C      27.90925376      29.94705262      21.41056848 
C      30.55279495      21.66027203      13.34251295 
C      28.83997367      11.22219850      18.41766316 
C      25.36039395      13.21165331      29.59248303 
C      23.99100235      20.40941648      32.54143287 
C      26.25151364      30.12453058      25.40039935 
C      29.87253174      26.03336420      14.66325699 
C      29.67676163      13.81144340      14.68952271 
C      26.21430023      10.38034015      25.87522761 
C      18.88720343      17.39617720      31.67946145 
C      20.49348877      29.91465780      27.06316769 
C      24.65579348      29.17240692      13.98246865 
C      25.95769884      16.29880852      10.77146778 
C      22.32092494       8.61511006      21.61064483 
C      21.54947538       8.96912164      25.74778420 
C      19.41827061      12.85163432      30.18106750 
C      19.22467661      21.18120090      32.89186437 
C      19.34445482      26.93962232      30.61678570 
C      22.02394155      32.09966126      23.92605519 
C      23.39108244      31.90449475      17.88587490 
C      26.23436201      26.59249970      11.33136129 
C      26.08157278      20.64639300       9.57336128 
C      25.78626241      12.31035306      12.34563789 
C      23.50224214       8.81132447      17.07935605 
Ag      19.02457472      20.21237293      19.98299397 
Ag      16.21058210      20.19786765      19.05663344 
Ag      21.18908438      20.96392482      18.17068536 
Ag      20.88024125      18.18418449      19.03227358 
Ag      19.75183053      23.50355616      17.71076291 
Au      20.52509582      21.76773303      15.49914187 
Au      20.23131701      18.96146264      16.24975793 
Au      19.97869865      16.18248507      17.14049212 
Ag      19.03868338      16.12066907      19.96410681 
Ag      18.15613482      16.10212589      22.78838900 
Au      17.85456787      18.89765946      23.68973308 
Ag      17.58861402      21.75830104      24.54271042 
Ag      18.28036683      23.49453999      22.29715097 
Au      19.06641744      25.17942260      19.98436707 
Ag      17.56773997      22.71245294      19.53697502 
Ag      18.31866734      20.97462869      17.25546579 
Ag      18.05835954      18.18909782      18.09095100 
Ag      17.15625160      18.15668375      20.90432819 
Au      16.85895780      20.95707275      21.79170735 
Ag      20.06099190      14.03012698      21.86998871 
Ag      19.08209102      14.03380522      24.70953273 
Au      18.73145608      16.86486267      25.56906734 
Ag      18.50785344      19.74106279      26.47304020 
Ag      18.22001469      22.54297010      27.31051166 
Au      18.92458731      24.32395627      25.05223050 
Au      19.73610370      26.12094789      22.77140687 
Ag      15.47484256      22.53809160      26.33732549 
Ag      16.06483058      24.31282427      24.12724795 
Au      16.90734093      25.95837581      21.86786826 
Au      17.77420197      27.74481158      19.61149413 
Au      18.34278767      26.05711173      17.23622341 
Ag      19.09248618      24.34818453      15.02791147 
Au      19.84007380      22.51798735      12.73544220 
Ag      19.50299035      19.73975172      13.45120386 
Ag      19.34826687      16.98178858      14.36891644 
Ag      19.14181356      14.10246507      15.25072447 
Au      18.12418213      14.08352086      18.03858880 
Ag      17.26317321      14.07610106      20.88354750 
Ag      16.35352358      14.04546557      23.73221480 
Ag      15.94870629      16.80921893      24.60848283 
Ag      15.71581525      19.66524005      25.46862700 
Ag      17.32191543      18.97452720      15.27477330 
Ag      17.20340493      16.20273789      16.18830422 
Ag      16.17856447      16.10572821      18.99426944 
Ag      15.39242857      16.08701043      21.82302074 
Ag      14.91396504      18.87551333      22.77055275 
Au      14.75686225      21.71764844      23.64353757 
Au      15.31307410      23.52960853      21.35786131 
Ag      16.19446985      25.24763010      19.11607723 
Ag      16.82443689      23.57530285      16.76577903 
Au      17.68386561      21.82745817      14.58037085 
Au      14.75692868      22.76495251      18.59090072 
Au      15.47064688      21.02131649      16.27918480 
Au      15.22411509      18.14421251      17.16446463 
Au      14.28343246      18.09740571      20.03906185 
Au      13.98190992      20.95008628      20.91520821 
Au      13.34462704      20.16452715      18.14293445 
Au      13.41296987      15.21904192      19.59712684 
Ag      12.48812211      17.38558025      22.23652704 
Ag      12.23469998      20.01000448      23.19152754 
Ag      12.47596138      23.32110192      21.99653651 
Au      13.20780777      25.06777663      19.90615353 
Ag      14.24770594      25.02782843      16.74341642 
Ag      14.97690489      23.42419292      14.51028155 
Au      15.22574394      19.96313075      13.46490600 
Au      15.02185800      17.34073440      14.22737667 
Ag      14.20730526      15.39213455      16.93886012 
Ag      12.40522842      17.49167571      17.92356960 
Ag      11.63095009      19.41502640      20.30027852 
Au      11.97364061      22.35558626      19.28499778 
Ag      12.92294761      22.38028307      16.37897214 
Ag      13.16435749      19.32402698      15.44897027 
Au      15.45530804      13.34496223      18.63633203 
Ag      14.62474818      13.29473225      21.53507603 
Ag      13.64791304      15.14930340      23.81916839 
Ag      13.36513118      17.93659417      24.98076818 
Ag      13.16820240      20.84493059      25.86261819 
Ag      13.25426069      23.81512262      24.82174443 
Ag      14.05020565      25.76738339      22.60800019 
Au      15.04210756      27.54626006      20.39824366 
Au      15.82964911      27.49402168      17.45089780 
Ag      16.50278802      25.84463759      15.05305598 
Ag      17.36938888      24.02394497      12.78948341 
Ag      17.47391893      21.08020095      11.80496696 
Ag      17.29560493      18.12208529      12.53103522 
Au      17.28726296      15.29845166      13.48844365 
Ag      16.29005728      13.56671840      15.74978767 
Au      16.61975927      11.67426942      25.59209260 
Ag      16.82815974      14.85158888      26.54542672 
Ag      16.65044516      17.67128851      27.38847657 
Au      16.38778829      20.49917672      28.18818775 
Ag      15.51392415      23.34988670      29.27883584 
Ag      16.77418027      25.08609059      26.85817165 
Ag      17.55681133      26.79627930      24.59316517 
Ag      18.32072212      28.53131733      22.36725932 
Au      18.39324274      30.66855465      19.97536977 
Ag      19.74163635      28.58667303      17.66179095 
Au      20.54565269      26.90734452      15.42516838 
Au      21.24093011      25.06802975      13.18143545 
Ag      21.50661572      23.53066642      10.43043318 
Ag      21.66272038      20.52189536      11.60269834 
Au      21.49067074      17.74555392      12.52671265 
Ag      21.27186077      14.91108825      13.37810153 
Au      20.30865316      11.86579238      13.64569867 
Au      19.90610607      11.98560075      17.12597041 
Ag      19.10706116      12.00651470      19.92697096 
Au      18.28118795      12.07292840      22.73006911 
Ag      11.32903414      14.47896416      17.58052978 
Au       9.67202945      18.32878731      22.97054471 
Au      10.15415698      24.90014387      20.81747471 
Au      12.27689471      24.79678942      14.25139948 
Ag      12.95344897      18.38514971      12.32106436 
Au      11.93834005      27.72234880      21.96833060 
Ag      10.80424857      18.80361985      26.11319182 
Ag      12.93017367      11.95840861      19.18602795 
Au      15.47066030      16.60083213      10.74848428 
Au      15.00024467      26.32227683      12.56035730 
Ag      14.45990912      26.64460893      25.54293771 
Ag      17.73227085      28.68231076      15.28682113 
Ag      19.31357942      18.91593989      10.41219565 
Au      16.94398381      10.88445001      17.59224931 
Au      13.84937253      15.66548500      26.97784088 
S      11.27358476      22.69274470      14.51866619 
S      11.34105303      18.25381481      14.10976888 
S      10.12627588      16.49578176      18.09544886 
S       9.26758649      19.68500877      21.10196787 
S       9.88663609      23.59554184      18.88198150 
S      13.08249580      26.96800123      13.79250892 
S      10.23112550      26.27657386      22.73228094 
S       9.79260612      16.97332971      24.89743696 
S      12.01302380      12.25714034      16.96200446 
S      14.08145588      18.42028883      10.17259727 
S      12.79362258      26.63357797      18.02513321 
S      11.20173799      22.23791624      23.86234268 
S      11.96337149      15.00001064      21.65548192 
S      14.21638704      15.00566875      14.48035850 
S      14.93272904      22.11895173      12.31964893 
S      16.85754696      25.87642630      11.19999562 
S      13.54529089      29.28311334      21.27841102 
S      11.55706678      20.42495917      27.70358324 
S      13.56305489      11.05530790      21.33312595 
S      16.85111230      14.73792908      11.12008778 
S      18.22823790      20.86517536       9.45359048 
S      15.91091426      29.75412786      16.50419234 
S      12.75401533      25.35137871      26.69069314 
S      13.08478868      13.75316855      25.80872394 
S      16.41578361      11.12788142      15.29771247 
S      20.70608808      16.90380703      10.37760540 
S      19.59182514      28.41235066      13.75311644 
S      15.89852854      28.55100945      25.11556531 
S      14.47299760      17.30609660      28.55164960 
S      17.51160198      10.09309158      19.74918718 
S      20.58899424      10.34059150      15.41382084 
S      20.12356515      13.31878436      11.81332994 
S      22.54493623      21.56645064       9.50693985 
S      20.49258736      25.66701308      10.93583915 
S      19.81707799      31.03867016      18.13376612 
S      16.94618372      30.54674706      21.82592236 
S      16.22475416      25.64416605      29.23013257 
S      14.51467330      21.18404583      29.63542987 
S      16.68698166      12.63539803      27.73580947 
S      16.52595763      10.52740095      23.53659777 
C       9.59842335      23.01057462      15.19779847 
C       9.96348793      19.40040982      13.71848089 
C       9.07631628      16.90330284      16.64676449 
C       8.08298176      18.74536756      20.06392122 
C       8.41447387      22.53935446      19.14218218 
C      11.94979795      27.63290088      12.50300308 
C       8.71091135      27.30944587      22.65432858 
C       8.06864947      16.91014728      25.54675349 
C      10.48067715      11.23367457      16.93469675 
C      12.92866034      17.71437584       8.92358817 
C      11.08220101      26.59378104      17.36557265 
C       9.38301142      22.48437514      23.73495085 
C      10.16208367      14.69410063      21.43983815 
C      12.49789832      14.70398390      13.89748621 
C      13.39639675      22.10091751      11.31039221 
C      16.18482150      24.94439910       9.76560180 
C      12.85092166      30.00947068      19.74352577 
C      10.41538922      21.85937291      27.58198899 
C      12.09109208      11.20963614      22.42133518 
C      15.69151263      13.32509462      11.28680110 
C      16.89945824      20.24730914       8.34738673 
C      14.56301587      30.05679670      15.29932111 
C      11.13652039      26.18331382      26.44168337 
C      11.26749242      13.68960031      26.05366897 
C      14.73659047      10.42626540      15.07514062 
C      22.04009675      17.32125709       9.18381712 
C      20.51692965      29.99141148      13.92646633 
C      16.29308026      29.15833484      26.80723532 
C      14.89197449      16.30280511      30.03616536 
C      18.56650660       8.63307109      19.37741067 
C      19.38694347       8.98142260      15.15236602 
C      21.38236144      12.74572633      10.60646410 
C      21.61390817      21.17392394       7.97268906 
C      21.58250588      27.00334072      10.31679345 
C      18.85095761      32.07778530      16.96649482 
C      17.41656921      31.92776766      22.93663298 
C      14.71310404      26.64612031      29.52247990 
C      14.86612512      20.70112054      31.36871875 
C      15.07638256      12.23707088      28.51970078 
C      17.30201651       8.89590054      23.84848666 
H      31.68540274      22.05601737      25.72233997 
H      31.76945725      23.59209978      26.63953550 
H      31.23262794      23.58655723      24.91737411 
H      31.41664655      19.45687756      26.17833806 
H      31.39571132      18.96065714      27.89791975 
H      30.39659580      20.34785095      27.34895061 
H      32.26583490      17.83605823      24.02284201 
H      32.55887046      16.09113998      24.27781403 
H      31.19332379      16.90775007      25.11191396 
H      33.81512145      18.67334836      20.43129114 
H      32.47364409      17.82160300      21.27424570 
H      33.08324157      19.38178359      21.89978937 
H      33.49802280      23.24411472      21.94081659 
H      32.58654110      21.92230163      21.13381579 
H      32.77783667      21.92626502      22.91079503 
H      29.84115119      27.90084408      28.01939738 
H      28.95556942      27.01591575      29.30217432 
H      28.43056327      28.66138092      28.82312246 
H      32.14692846      28.20642404      17.89692208 
H      33.14275041      26.79256941      18.35496132 
H      32.28302718      27.72481573      19.61301162 
H      32.97617981      16.51849108      14.53083017 
H      33.49172084      16.24280655      16.22381328 
H      33.40508558      17.90846167      15.57542930 
H      30.11636649      10.19866078      23.99077421 
H      30.91820161      11.51236959      24.90298614 
H      31.04799280      11.45253203      23.12121998 
H      28.65360032      18.56939956      32.05228713 
H      28.34911757      16.89538215      31.50305107 
H      27.32637211      17.61544867      32.77912075 
H      30.25080618      27.19503379      22.86290611 
H      30.10349958      25.60981747      23.68300461 
H      29.56181168      27.10321480      24.52311765 
H      32.09491573      21.85585375      16.65175360 
H      31.79375632      22.00455741      18.40966426 
H      31.74717239      23.47201861      17.36638030 
H      31.27611414      14.98581838      18.38338286 
H      31.01437514      13.67668824      19.58627361 
H      31.22203497      15.36801811      20.14083588 
H      28.63941061      13.59612354      26.50863041 
H      28.27014345      14.34663093      28.10270523 
H      29.02236756      15.32739996      26.80449696 
H      27.40242205      23.24939274      30.15197978 
H      28.23543529      22.12179888      29.03750774 
H      27.29668713      21.46997487      30.42645278 
H      23.72979034      24.68814283      31.72257413 
H      25.17220381      25.75375391      31.77686618 
H      25.22189454      24.19739472      30.87693650 
H      28.78292442      30.58723362      21.24162680 
H      28.15414841      29.14857630      22.11980000 
H      27.07942782      30.54475628      21.80752327 
H      31.50761872      21.37145690      12.89035847 
H      30.70227205      21.99552510      14.37471448 
H      30.09856106      22.47503888      12.76461529 
H      28.51055202      11.00832070      17.39335384 
H      29.60481293      10.49687891      18.71619744 
H      29.24686111      12.23898809      18.45545832 
H      24.80958086      12.28943166      29.36975986 
H      25.93359599      13.08191475      30.51702022 
H      26.03464046      13.43229985      28.75764082 
H      24.52909684      21.29701378      32.89579116 
H      24.68624131      19.76285302      31.99425417 
H      23.57975382      19.86790534      33.40080494 
H      27.10295680      30.47564280      24.80433021 
H      26.56218017      29.26643963      26.00534412 
H      25.89924334      30.93564947      26.04711443 
H      30.00804006      26.95296499      14.08193811 
H      30.65838979      25.31497183      14.40064790 
H      29.93239541      26.25580857      15.73403737 
H      29.86339748      13.60203706      13.63047307 
H      30.08371198      12.99650416      15.30090367 
H      30.15047866      14.75614791      14.97849525 
H      26.16614980       9.30134535      25.69223120 
H      26.50203993      10.56161761      26.91826473 
H      26.95026093      10.84493134      25.20970764 
H      18.10213168      16.63687536      31.58150863 
H      18.45960817      18.38815810      31.49555596 
H      19.31045499      17.35639457      32.69031353 
H      19.58078229      29.75410147      27.65009568 
H      20.22488169      30.20280655      26.04099859 
H      21.09384069      30.70391576      27.52942885 
H      25.56436971      29.59038576      13.53405418 
H      23.91053083      29.96911573      14.09489122 
H      24.25034577      28.38718114      13.33502263 
H      25.49233801      16.95122510      10.02223610 
H      25.25659031      15.50451954      11.04837622 
H      26.87477494      15.86349682      10.35884243 
H      21.90742424       8.25558613      20.66018223 
H      21.50106883       8.90086298      22.27780423 
H      22.92159507       7.82235339      22.07044954 
H      21.58669188       8.32131137      24.86389693 
H      21.19906306       8.39274490      26.61182717 
H      22.54264874       9.38658339      25.94262859 
H      19.79446365      11.97378190      30.71942048 
H      18.46680412      12.61776605      29.69100448 
H      19.29491627      13.68898787      30.87879452 
H      18.81625528      20.22037830      33.22710664 
H      18.99848434      21.95259604      33.63612680 
H      20.30746308      21.09619283      32.74572473 
H      19.67974843      27.88316372      30.16898717 
H      19.50602453      26.96885735      31.70062876 
H      18.28628200      26.76286261      30.39247463 
H      22.13092873      33.09766676      23.48589275 
H      23.01027666      31.64882642      24.07918764 
H      21.50757837      32.18146698      24.88969535 
H      23.84070444      31.69567638      16.90762468 
H      23.76925234      32.86118447      18.26474275 
H      22.30010546      31.94821617      17.79557717 
H      26.55786642      26.47475503      10.29116084 
H      27.04341805      26.31308321      12.01446858 
H      25.94396475      27.63491171      11.50826539 
H      26.79214582      21.20217362       8.95051589 
H      25.05289859      20.85010556       9.25440443 
H      26.29994744      19.57333954       9.51050538 
H      25.88159047      12.93994703      11.45326046 
H      25.80151366      11.25434736      12.05083556 
H      26.61037236      12.52235765      13.03475844 
H      24.18393190       8.15875335      16.52053967 
H      22.57946360       8.96108831      16.50794461 
H      23.27756796       8.35615399      18.05146974 
H       9.00583606      23.55583304      14.45526622 
H       9.64218287      23.57228219      16.13677200 
H       9.13959497      22.03122667      15.38281107 
H       9.39566908      18.99549230      12.87307827 
H      10.33367901      20.40148145      13.47488130 
H       9.30919046      19.45900174      14.59718130 
H       8.31094484      16.12804931      16.53006544 
H       9.67652197      16.98385447      15.73353401 
H       8.58874636      17.86580407      16.84523949 
H       7.87715212      19.35838241      19.17744226 
H       7.15458188      18.59530491      20.62516796 
H       8.50613288      17.78538043      19.74812608 
H       8.35782042      21.84613520      18.29383580 
H       7.52710791      23.18260590      19.15114836 
H       8.48682416      21.97136344      20.07517135 
H      12.37627324      28.57292116      12.13352048 
H      10.97973855      27.82728072      12.97512265 
H      11.82669862      26.92870206      11.67566541 
H       7.85101270      26.65797113      22.84840058 
H       8.60238875      27.78866724      21.67762563 
H       8.78331891      28.07188786      23.43875515 
H       7.46940203      16.27245237      24.88704244 
H       7.62313340      17.90737032      25.60104882 
H       8.10668105      16.46846584      26.54965184 
H       9.91578565      11.47461450      16.02666358 
H       9.85436090      11.41808926      17.81208912 
H      10.77186809      10.17696425      16.91174395 
H      13.49264970      17.48891539       8.01124128 
H      12.16910718      18.47477039       8.70628764 
H      12.44216196      16.80672010       9.29138264 
H      11.05133993      27.27081555      16.50319430 
H      10.39444413      26.94436427      18.14473018 
H      10.79428436      25.58662290      17.05056361 
H       9.17199401      23.55702383      23.80735342 
H       8.89848308      21.94617529      24.55810002 
H       9.02184136      22.09160960      22.77860515 
H      10.01212154      13.64152753      21.17251371 
H       9.76803098      15.34022532      20.64765877 
H       9.66935229      14.92049481      22.39263824 
H      12.51162746      14.64875019      12.80258362 
H      11.83505232      15.51514691      14.21712547 
H      12.16548626      13.75136830      14.32708903 
H      13.49629176      21.33430672      10.53390526 
H      13.28210633      23.09294336      10.85732650 
H      12.53234748      21.88821815      11.94911005 
H      15.58632357      25.61723562       9.14215912 
H      15.58537464      24.08637420      10.08758637 
H      17.05039461      24.58149936       9.19716575 
H      13.64553615      30.62292311      19.30050673 
H      11.99358907      30.63850689      20.00716018 
H      12.55761861      29.22375116      19.03729448 
H      10.85133514      22.66946796      28.17988543 
H       9.43821225      21.58251215      27.99231952 
H      10.31096417      22.20214458      26.54692916 
H      11.32592969      10.49386591      22.10077348 
H      11.68473648      12.22722208      22.40484588 
H      12.41154656      10.97134670      23.44325201 
H      15.21840681      13.13747850      10.31657738 
H      14.93496153      13.52367189      12.05376255 
H      16.29443189      12.45752218      11.58296717 
H      17.35401487      19.73358326       7.49292473 
H      16.33436615      21.11657500       7.98976479 
H      16.21816137      19.56758577       8.87018718 
H      14.85406670      30.89638653      14.65746858 
H      13.65957304      30.31971733      15.86238623 
H      14.36111330      29.17104895      14.68925834 
H      10.35497590      25.52236388      26.83558498 
H      10.94357678      26.37494605      25.38103773 
H      11.13002965      27.12733466      26.99811203 
H      10.89003752      12.87011349      25.42947109 
H      10.79006685      14.62822944      25.75176127 
H      11.05123573      13.47620902      27.10633796 
H      14.45377216      10.59808307      14.02926636 
H      14.00448073      10.90791693      15.73293188 
H      14.77003288       9.34910475      15.27216252 
H      21.62201874      17.26122223       8.17181259 
H      22.84209127      16.58148541       9.29235873 
H      22.44057613      18.32602677       9.36120692 
H      19.92933050      30.78936484      13.45729404 
H      21.47299276      29.88359522      13.40045429 
H      20.70614773      30.23559192      14.97736595 
H      17.09398698      29.90227591      26.71949937 
H      16.62273547      28.34555315      27.46430112 
H      15.40059468      29.63570834      27.22798809 
H      13.97359814      15.86871814      30.44692553 
H      15.33653491      16.98418697      30.77216644 
H      15.60755471      15.50929809      29.79622860 
H      17.94328931       7.83954200      18.94984931 
H      18.99686175       8.28915650      20.32614285 
H      19.37475413       8.88915473      18.68468207 
H      19.71409586       8.40950281      14.27634672 
H      18.37516939       9.37143399      15.00064761 
H      19.40925520       8.33922168      16.04081279 
H      21.47280872      13.53617883       9.85110867 
H      21.02895528      11.82314777      10.13247462 
H      22.35061134      12.57605384      11.09048637 
H      21.85293312      21.93489280       7.22119848 
H      20.53375847      21.15151538       8.15541378 
H      21.94437257      20.19270589       7.61172816 
H      21.39172636      27.12347989       9.24356664 
H      22.63982225      26.77029182      10.48326205 
H      21.30888085      27.92487292      10.84478130 
H      19.42539573      32.16117092      16.03625310 
H      18.73163756      33.07217583      17.41120477 
H      17.87007808      31.63722073      16.75858435 
H      17.05576925      32.86870219      22.50627382 
H      18.50220806      31.96864579      23.08063904 
H      16.91443444      31.74427402      23.89456375 
H      14.95510816      27.69768774      29.32805011 
H      14.42222668      26.52881086      30.57249414 
H      13.89435100      26.33137893      28.86605892 
H      14.68929394      19.62257197      31.45795493 
H      14.16361753      21.23868698      32.01688303 
H      15.89587167      20.94180267      31.65543405 
H      15.05450730      11.16465684      28.74351818 
H      14.24086913      12.50721246      27.86524928 
H      15.01313958      12.80705117      29.45442984 
H      17.46170675       8.42811605      22.86928544 
H      16.60279884       8.28888003      24.43536759 
H      18.25256602       9.00200595      24.38288521 
