646
Properties=species:S:1:pos:R:3 i=102 optimized=T E=-9873.0301406348 pbc="F F F" jobid=246_80-Ag-30_1-000005-PBE
Au      21.92039526      20.17669985      20.91835895 
Au      24.75692258      20.18958757      21.85109865 
Au      20.47697305      22.69195821      20.46070673 
Au      19.71259469      20.95333979      22.70871752 
Au      19.98829363      18.13252477      21.85558017 
Au      21.20996130      23.54392470      23.17731643 
Au      20.38360290      21.78419871      25.40164416 
Au      20.62734595      18.93945112      24.60642017 
Ag      20.91720912      16.12287601      23.73150906 
Au      21.83969155      16.11242374      20.94409360 
Ag      22.75948938      16.15395940      18.14200671 
Ag      23.10300616      18.92047244      17.25429130 
Ag      23.37631517      21.72678398      16.38116045 
Au      22.66814445      23.46149723      18.61152049 
Au      21.89855455      25.19697076      20.89508871 
Ag      23.39393070      22.71336012      21.36755730 
Au      22.64015607      20.99783275      23.65376589 
Au      22.88050349      18.15259058      22.81546603 
Ag      23.80094481      18.14730635      20.01886596 
Ag      24.13118001      20.95464873      19.11911278 
Ag      20.87861038      14.03569505      19.02121072 
Au      21.87776928      14.09053855      16.17338315 
Au      22.19718581      16.84883415      15.27126371 
Au      22.41065212      19.70996920      14.40116321 
Au      22.71906583      22.58349441      13.61651723 
Au      22.04204839      24.39415102      15.86091355 
Au      21.21926660      26.14799780      18.11818514 
Au      20.49607335      27.81481086      20.53736710 
Au      25.40732410      22.50006983      14.50939075 
Au      24.82460426      24.27913057      16.76042732 
Au      24.02834717      25.97205787      19.01288063 
Ag      23.22064373      27.74056801      21.27697986 
Ag      22.60729926      26.09687376      23.63390207 
Ag      21.79093311      24.36542599      25.85824230 
Au      20.92705273      22.63645897      28.13532522 
Au      21.28974507      19.73466256      27.37868667 
Au      21.52051272      16.93131914      26.49002623 
Ag      21.74033899      14.05365983      25.61864942 
Ag      22.76902750      14.01968555      22.84169897 
Au      23.67649178      14.08610771      20.07452983 
Au      24.52488041      14.09467940      17.19299003 
Au      24.93931797      16.87111442      16.24339942 
Au      25.19442724      19.64320247      15.42149543 
Ag      23.59233736      18.97874868      25.57399991 
Au      23.73795039      16.17944744      24.70684100 
Ag      24.80447859      16.06467824      21.95706468 
Au      25.58514079      16.08969804      19.10758340 
Au      26.01777967      18.88349737      18.17922557 
Ag      26.25601796      21.66576227      17.27538199 
Au      25.60022728      23.48568579      19.52598411 
Ag      24.76446931      25.21520399      21.76178536 
Au      24.09868148      23.58625428      24.14802258 
Au      23.22993993      21.80246224      26.33038529 
Au      26.23843380      22.74027405      22.28131209 
Ag      25.50664696      21.02891410      24.65491453 
Au      25.73339444      18.11306436      23.80178963 
Au      26.68911609      18.06865515      20.89830271 
Au      27.01401913      20.92522205      19.99487310 
Au      27.62132442      20.17001055      22.80465708 
Au      27.59958438      15.13274611      21.42224128 
Au      28.54900140      17.31763048      18.63861377 
Au      28.83955367      19.91371239      17.75652466 
Au      28.48954255      23.30046769      18.77236872 
Au      27.81507522      24.99451262      20.86343186 
Au      26.68355513      24.97154379      24.23612976 
Au      26.03186717      23.40802222      26.43175819 
Ag      25.63560858      20.07053192      27.47184406 
Ag      25.86060319      17.30742649      26.74288068 
Au      26.79838375      15.23525111      24.08043456 
Au      28.47953598      17.46617820      23.08320346 
Ag      29.35743787      19.30949844      20.67051394 
Au      29.02606104      22.28360435      21.54819230 
Ag      28.10480841      22.39994324      24.49561170 
Au      27.70049118      19.31160293      25.50492114 
Au      25.50067947      13.30080632      22.27861170 
Ag      26.30668596      13.29231165      19.34561302 
Au      27.17389685      15.14795229      16.99940788 
Au      27.60769244      17.96270686      15.90652944 
Au      27.70196286      20.87401647      14.92436112 
Au      27.56053551      23.76642125      15.93560181 
Au      26.89582317      25.72126762      18.15096504 
Au      25.93234608      27.47532672      20.44134736 
Au      25.13573030      27.45419746      23.36418908 
Ag      24.40640463      25.87316810      25.87734272 
Au      23.47108503      23.99362139      28.09261448 
Au      23.24910193      21.10888422      29.03945480 
Au      23.56575417      18.21093815      28.29791771 
Au      23.63649360      15.29925553      27.42254031 
Au      24.50680282      13.55560488      25.12541725 
Ag      24.10864932      11.74932703      15.32370620 
Ag      24.17848937      14.83372436      14.37890582 
Ag      24.26775163      17.62593420      13.43939924 
Au      24.44762072      20.44623262      12.64366050 
Au      25.59126134      23.31577398      11.53101971 
Ag      24.31151092      25.15628533      14.05551191 
Ag      23.39824117      26.86690327      16.26992072 
Au      22.56895468      28.54319361      18.56183135 
Ag      22.31265177      30.63046865      20.91199731 
Ag      21.25938554      28.67215239      23.28231616 
Au      20.38406302      26.92814936      25.42823528 
Au      19.53623881      25.17653171      27.63799486 
Au      19.46964968      23.72338016      30.56060091 
Au      19.21550582      20.51158543      29.24362110 
Ag      19.38898225      17.69885726      28.40810761 
Ag      19.63925105      14.89014043      27.48118488 
Au      20.51426378      11.80263107      27.16559029 
Ag      20.99677047      11.91378097      23.70616845 
Au      21.77352097      11.99957536      20.91186225 
Au      22.72321465      12.03083758      18.14128843 
Ag      29.66039718      14.37778796      23.50873448 
Au      31.46760094      18.24649157      18.14628273 
Au      30.85263763      24.89927614      20.08298084 
Au      28.71995687      24.98450128      26.64769115 
Au      27.88568888      18.41332706      28.89653224 
Au      28.99656410      27.71458913      18.93800333 
Au      30.30182339      18.62766154      14.80568337 
Ag      28.08067677      11.94772694      21.66778866 
Ag      25.31385535      16.44531077      29.84055997 
Au      25.92114714      26.40274296      28.35868470 
Au      26.63173305      26.89874903      15.19264209 
Au      23.27556457      28.82981181      25.71854203 
Ag      21.54880142      18.93954528      30.48719680 
Au      24.00516260      10.83299664      23.34411005 
Au      27.09589752      15.72639621      13.71678010 
S      29.79302744      22.93299280      26.27707821 
S      29.37687096      18.45846451      27.09254150 
S      30.72585795      16.51204478      23.15974421 
S      31.80239437      19.50234148      20.09614920 
S      31.07863714      23.56310082      21.99965373 
S      27.85428496      27.11174380      27.20167274 
S      30.79376917      26.34836645      18.22612503 
S      31.39487152      17.00712541      16.13711178 
S      29.11890064      12.06593308      23.86009730 
S      26.58688149      18.25505251      30.84302576 
S      28.03057376      26.47869154      22.82274996 
S      29.87625060      22.06793854      17.16171296 
S      29.07269603      15.05557282      19.43395255 
S      26.96433986      15.02953637      26.51246127 
S      26.18442439      22.25282601      28.60068098 
S      24.03297053      25.81891484      29.62366350 
S      27.38180623      29.28004697      19.62462809 
S      29.42435386      20.21958674      13.31595920 
S      27.44706276      11.10783440      19.49111056 
S      24.11981202      14.35597500      29.60657555 
S      22.63544801      20.96755566      31.38318338 
S      25.00778780      29.69929052      24.37096162 
S      28.24540225      25.43248849      14.26522814 
S      27.92101198      13.93040619      15.02289528 
S      24.58363269      11.17291347      25.61464631 
S      20.29739092      16.85186039      30.55236081 
S      21.46121934      28.33113407      27.13413631 
S      25.09845349      28.60274170      15.73787390 
S      26.31871886      17.23124166      12.08252232 
S      23.34023864      10.09405821      21.21026951 
S      20.32760446      10.22365635      25.43626874 
S      20.65550340      13.22613361      29.02905877 
S      18.46038704      21.71906222      31.26045346 
S      20.36061531      25.79333215      29.87615531 
S      21.06224966      31.12916109      22.90544064 
S      23.82539059      30.56674750      19.02063051 
S      24.84018632      25.53952717      11.62532293 
S      26.34837122      21.09855962      11.24707841 
S      24.13647223      12.70352188      13.10564699 
S      24.35118551      10.39035516      17.31839761 
C      31.46813235      23.29626377      25.62793113 
C      30.68725717      19.67420758      27.49146671 
C      31.64079850      17.03943252      24.65607118 
C      32.93165188      18.54416319      21.17455169 
C      32.58827739      22.54377886      21.82001931 
C      28.94348944      27.74355810      28.54255426 
C      32.26512690      27.43568940      18.41128338 
C      33.12118644      17.01432631      15.50310434 
C      30.68501041      11.11356047      23.67700383 
C      27.68316027      17.42860758      32.07037502 
C      29.74031472      26.53415307      23.47999284 
C      31.61579959      22.17048869      17.72695362 
C      30.85207770      14.96930298      19.86623695 
C      28.74221803      14.90338428      26.94359046 
C      27.88340327      22.23651012      29.28973116 
C      24.71238990      24.87595924      31.04528202 
C      28.07017509      29.99385308      21.16944565 
C      30.60006576      21.62720941      13.39108177 
C      28.92549311      11.34227724      18.42440022 
C      25.35556233      13.04289985      29.27010136 
C      24.06336145      20.45991283      32.41066965 
C      26.41100586      30.09003643      25.48222613 
C      29.88486121      26.16252650      14.62806022 
C      29.74393746      13.93607595      14.85291976 
C      26.31322234      10.60920917      25.81849462 
C      18.97346437      17.18712059      31.78543017 
C      20.48311799      29.88676225      27.10857384 
C      24.64032097      29.28533663      14.09274047 
C      25.78318844      16.11985171      10.71878431 
C      22.25991158       8.65461108      21.57800318 
C      21.58420352       8.93323776      25.79032504 
C      19.36397731      12.64217557      30.19442108 
C      19.28767765      21.20211940      32.81294983 
C      19.26594310      27.08253735      30.58063563 
C      22.16880644      32.15426401      23.95592533 
C      23.28822695      31.85931817      17.83690797 
C      26.30914438      26.59307669      11.30911948 
C      25.99819040      20.66496078       9.50137707 
C      25.77384395      12.27808924      12.38646915 
C      23.47376968       8.81142253      17.01335570 
Au      18.97687226      20.19898012      19.97538700 
Ag      16.12127885      20.23858257      19.04373512 
Au      21.25460730      20.95998184      18.21334337 
Ag      20.92215641      18.16433502      19.05848067 
Au      19.80017390      23.53678319      17.73986550 
Au      20.57968780      21.79934339      15.53838728 
Au      20.28823580      18.97832445      16.33406276 
Au      19.99283228      16.16925109      17.21951590 
Ag      19.02347605      16.14668820      19.94664731 
Ag      18.13229818      16.10619060      22.76737677 
Ag      17.82482234      18.87385377      23.64242112 
Au      17.59033331      21.68904083      24.50680536 
Au      18.29899809      23.47084334      22.30702523 
Au      19.08458728      25.20748384      20.05904107 
Au      17.53810630      22.71610280      19.53489344 
Ag      18.31162554      21.02515783      17.25806928 
Au      18.01541583      18.21046260      18.06538373 
Au      17.10479050      18.16707942      20.87010769 
Ag      16.80072958      20.95954065      21.76291976 
Ag      20.00773903      14.01498580      21.85783206 
Au      19.06950271      14.06447122      24.66091703 
Au      18.72266843      16.81624936      25.63063170 
Au      18.50156186      19.67741748      26.51481206 
Au      18.19382507      22.57119903      27.29497256 
Au      18.93105521      24.35165472      25.03794990 
Au      19.77156519      26.14862620      22.80729705 
Au      15.48526917      22.48245909      26.36586343 
Au      16.09298539      24.29700109      24.14942401 
Au      16.93186931      25.98922877      21.94323846 
Au      17.77285028      27.78993929      19.70225998 
Au      18.42141322      26.10169136      17.26817139 
Ag      19.18836465      24.39183213      15.06559437 
Au      19.99847845      22.64931266      12.80525063 
Au      19.58199694      19.79181933      13.59837571 
Au      19.33847614      16.99596941      14.44463101 
Au      19.15633347      14.15055261      15.30234375 
Ag      18.11226977      14.05901691      18.05330307 
Au      17.25546041      14.07484397      20.82672258 
Ag      16.36238035      14.00364899      23.74002992 
Au      15.96450186      16.79023587      24.62688583 
Au      15.74526255      19.56861904      25.46122028 
Au      17.24387509      19.03084000      15.32818460 
Ag      17.13899511      16.21556051      16.17384307 
Ag      16.10170335      16.12908990      18.94303645 
Au      15.31858261      16.08765458      21.76841290 
Au      14.88464970      18.84870216      22.68578457 
Au      14.73886777      21.63916064      23.62632403 
Ag      15.31498506      23.50668405      21.38899917 
Au      16.20324742      25.23597473      19.16381130 
Au      16.86992670      23.63216914      16.77663821 
Au      17.68909908      21.91548580      14.58563693 
Au      14.67468476      22.81088557      18.61113097 
Au      15.44826617      21.10991440      16.26994678 
Au      15.13938555      18.16565907      17.10141047 
Au      14.18624487      18.10447739      19.95066832 
Au      13.88574966      20.98636585      20.92617138 
Au      13.28187938      20.20757145      18.14831229 
Ag      13.27465762      15.25080661      19.52785059 
Au      12.32939627      17.29926754      22.21132764 
Au      12.11070119      19.89386136      23.15834556 
Au      12.41199537      23.36669756      22.05512376 
Au      13.09494419      25.06792568      20.00157309 
Au      14.23887351      25.08268089      16.59137291 
Au      14.91222591      23.54643099      14.39898944 
Au      15.31821055      20.09009164      13.40500904 
Ag      15.02673337      17.35438359      14.15120265 
Ag      14.21298796      15.37437129      16.80793690 
Ag      12.41859484      17.52072420      17.75884484 
Ag      11.53327605      19.38211905      20.25730525 
Au      11.88288709      22.38331912      19.33658892 
Au      12.85976751      22.41167690      16.37782543 
Ag      13.22030933      19.52391742      15.37142423 
Au      15.37488549      13.41218624      18.59932387 
Au      14.57528560      13.37303398      21.53956739 
Au      13.71086612      15.08213961      23.81643512 
Au      13.30750176      17.89663871      24.95166776 
Au      13.24813838      20.80064733      25.94087484 
Ag      13.28479548      23.72797460      24.87347995 
Au      14.05393873      25.71652537      22.72692463 
Au      15.01852680      27.47784472      20.46025421 
Au      15.83991095      27.47459078      17.56304523 
Ag      16.59219502      25.92031389      15.05066938 
Au      17.48639983      24.09618776      12.80609492 
Au      17.69264022      21.17591006      11.89459447 
Au      17.38304892      18.20668488      12.56619318 
Au      17.32886974      15.30791034      13.41383612 
Au      16.36651155      13.55758262      15.78840559 
Au      16.60442237      11.57803258      25.53578671 
Ag      16.76625260      14.81037949      26.53262335 
Au      16.66535334      17.57362009      27.45564782 
Au      16.40246124      20.42749654      28.25384242 
Ag      15.46454342      23.24270873      29.29600579 
Au      16.63033514      25.11078360      26.87203572 
Ag      17.58156551      26.82650449      24.69822984 
Ag      18.35681645      28.58216752      22.45012127 
Au      18.32684145      30.73942710      20.09886171 
Au      19.68085284      28.62902222      17.66183600 
Ag      20.58725697      26.96505325      15.44533318 
Au      21.42154011      25.19501566      13.27786444 
Au      21.47695239      23.65790789      10.36589587 
Ag      21.59377961      20.50026416      11.63015329 
Au      21.51348935      17.73176946      12.55909769 
Ag      21.25123969      14.92027833      13.39404939 
Au      20.31997347      11.90684334      13.63359749 
Au      19.94653702      12.01071548      17.15472610 
Ag      19.09032883      11.94899395      19.92608323 
Au      18.22510143      12.02860628      22.70659204 
Au      11.21427761      14.39148353      17.44644432 
Ag       9.56714427      18.33768175      22.76486900 
Au      10.06025699      24.97315095      20.89284900 
Ag      12.23456037      24.91415556      14.31463558 
Au      12.84249868      18.37150417      12.24484400 
Au      11.95319266      27.72791495      22.02709876 
Au      10.59807236      18.59466510      26.08143756 
Ag      12.88781534      12.00949911      19.23821179 
Ag      15.47234937      16.49040063      11.13561974 
Ag      14.86708006      26.12359172      12.62170581 
Au      14.31229259      26.75567676      25.64799526 
Au      17.74857564      28.77755180      15.07150332 
Au      19.27138196      18.88309698      10.14967741 
Ag      17.01992868      11.06987800      17.51397924 
Au      13.75820170      15.70671905      27.11109966 
S      11.12593040      22.80648757      14.70369394 
S      11.40808667      18.37667578      14.10128687 
S      10.17326085      16.45412867      17.84840060 
S       9.10922656      19.64138215      20.80334446 
S       9.80466588      23.66692774      18.96009593 
S      12.83561726      27.10097907      13.51217076 
S      10.15468054      26.38582039      22.77822756 
S       9.42612180      17.01161428      24.78268822 
S      11.97540946      12.20961260      17.00227636 
S      14.05863211      18.25546170      10.23613519 
S      12.87829982      26.53774087      18.02971437 
S      11.15201706      22.09804077      23.74841047 
S      11.63998999      15.07217141      21.48663909 
S      14.01062763      15.05311095      14.34719513 
S      14.65845955      22.19796413      12.32168311 
S      16.79030947      25.76722224      11.19348961 
S      13.59773172      29.25759754      21.33702265 
S      11.55304543      20.15583625      27.56284986 
S      13.51217446      11.19218358      21.42446906 
S      16.71915685      14.41712065      11.23256311 
S      18.15039071      20.87249445       9.52530888 
S      15.97702538      29.59499980      16.40294255 
S      12.72170001      25.33643236      26.68467029 
S      12.93143442      13.91907793      25.80714181 
S      16.38956683      11.19522205      15.14047253 
S      20.57346486      16.93932146      10.44087321 
S      19.57244680      28.37890073      13.63433540 
S      15.76849080      28.49958736      24.98834504 
S      14.60200754      17.20161595      28.72876581 
S      17.55059263      10.01056097      19.62705019 
S      20.56831247      10.36490335      15.39276166 
S      20.19897475      13.32233126      11.76394436 
S      22.44088410      21.66738323       9.57597406 
S      20.61257402      25.75049682      11.03158397 
S      19.70501084      31.02848649      18.20807327 
S      16.96149254      30.62011863      22.00467645 
S      16.21019869      25.53969195      29.25791545 
S      14.53152118      21.04528271      29.69332279 
S      16.67066534      12.58562690      27.65719246 
S      16.52462873      10.42082453      23.48653612 
C       9.47707018      23.05552012      15.45867807 
C      10.02258153      19.50393291      13.68702414 
C       9.13878717      16.79583925      16.37372406 
C       7.98619638      18.69952473      19.70088072 
C       8.28275793      22.67076358      19.15816175 
C      11.80237307      27.44782573      12.02696266 
C       8.69089022      27.48974985      22.63910591 
C       7.69510970      17.13489040      25.39442625 
C      10.44986499      11.17788561      17.03874876 
C      12.95013808      17.37677583       9.05714129 
C      11.17188132      26.54655802      17.36125741 
C       9.36222591      22.26721931      23.38416726 
C       9.83021515      15.08613932      21.18348971 
C      12.25304264      14.83219071      13.86328972 
C      12.93205296      22.06888429      11.72609075 
C      16.17567091      24.72057133       9.81442306 
C      12.92068344      30.01059671      19.80590365 
C      10.40405970      21.58674869      27.53764476 
C      12.04477883      11.39113264      22.50899552 
C      15.52645926      13.07691920      11.60719003 
C      16.63671670      20.38074871       8.62182017 
C      14.53438526      29.86761185      15.31019625 
C      11.08720605      26.12657294      26.42760536 
C      11.10630355      13.93703273      25.93549996 
C      14.67596849      10.56552805      14.98827668 
C      21.92415172      17.14706579       9.21316433 
C      20.47562577      29.97961351      13.69620795 
C      16.15856943      29.33631626      26.57880304 
C      15.09218845      16.09278131      30.10891323 
C      18.64589403       8.61413730      19.14305593 
C      19.34908313       9.02363068      15.11430915 
C      21.47089710      12.69838089      10.59812711 
C      21.55134824      21.24448484       8.02684771 
C      21.72625220      27.00726316      10.29859736 
C      18.73123657      32.03297735      17.02138727 
C      17.48652070      32.00765540      23.08362325 
C      14.73093737      26.59069281      29.52812172 
C      14.94302330      20.57551568      31.41660733 
C      15.04445251      12.23234226      28.43315502 
C      17.35114185       8.81280287      23.78283780 
H      31.96505131      22.33078149      25.46890357 
H      32.02555381      23.87185850      26.37480245 
H      31.42907401      23.83927552      24.67804498 
H      31.38469305      19.68071983      26.64447333 
H      31.20944418      19.33667809      28.39362436 
H      30.28533596      20.68209128      27.63267539 
H      31.98339470      18.06959617      24.49897686 
H      32.50828460      16.37986455      24.77561238 
H      31.01347084      17.00061004      25.55207038 
H      33.87497615      18.37574410      20.64414546 
H      32.48556369      17.59373214      21.48472089 
H      33.12025408      19.15754350      22.06487620 
H      33.45427657      23.21457831      21.78941720 
H      32.55648226      21.91454033      20.92489952 
H      32.65015608      21.90338352      22.70872527 
H      29.91967325      27.97355021      28.10012499 
H      29.06327736      27.00708926      29.34179283 
H      28.49263599      28.65936252      28.94221552 
H      32.19645335      28.22485459      17.65338484 
H      33.15922522      26.82724214      18.23243880 
H      32.31161674      27.88121423      19.40862971 
H      33.11106788      16.58976175      14.49241522 
H      33.72590158      16.38250295      16.16403056 
H      33.53362863      18.02659693      15.47732869 
H      30.43390328      10.04982184      23.59142764 
H      31.29651658      11.27152380      24.57296667 
H      31.24915821      11.42397341      22.79304398 
H      28.45725537      18.13755764      32.38528934 
H      28.15035337      16.53137061      31.65512837 
H      27.06412315      17.15391604      32.93279262 
H      30.38344445      26.98321970      22.71307369 
H      30.10370353      25.53247272      23.72498795 
H      29.72558350      27.15641848      24.38269995 
H      32.20129079      21.44507232      17.14881652 
H      31.70187817      21.94124671      18.79237990 
H      31.96577383      23.19134462      17.53267471 
H      31.42246867      15.07601588      18.93567700 
H      31.04445820      13.98916965      20.32004932 
H      31.12792725      15.76367731      20.56616278 
H      29.11016211      13.92780331      26.60280837 
H      28.82949581      14.98024203      28.03447055 
H      29.32124724      15.70754873      26.48041385 
H      28.15935758      23.25896686      29.57400657 
H      28.60369086      21.85714374      28.55981956 
H      27.86975425      21.58503724      30.17201657 
H      23.85570635      24.42835987      31.56469760 
H      25.23580809      25.57067775      31.71136536 
H      25.38613739      24.08251594      30.70223661 
H      28.93423482      30.61851925      20.91685726 
H      28.35612867      29.20622737      21.87504482 
H      27.27957085      30.61229418      21.61260550 
H      31.53623702      21.33045692      12.90518493 
H      30.78281925      21.93417142      14.42660341 
H      30.13850925      22.45609071      12.84002420 
H      28.61257526      11.18405728      17.38488916 
H      29.68448605      10.59998532      18.69577646 
H      29.33645090      12.35337246      18.52362362 
H      24.81774186      12.17358216      28.87193902 
H      25.84049151      12.77854392      30.21693981 
H      26.10127151      13.37729355      28.53976405 
H      24.71232038      21.33210886      32.55390792 
H      24.63934445      19.65607269      31.94181460 
H      23.67952170      20.12563698      33.38199017 
H      27.24602972      30.40735204      24.84557591 
H      26.71219019      29.21813363      26.07189372 
H      26.11711778      30.91424392      26.14197536 
H      29.98895883      27.08961185      14.05284171 
H      30.64169149      25.43912486      14.30093492 
H      30.00998884      26.36270016      15.69675999 
H      29.99626952      13.66015692      13.82265966 
H      30.13548987      13.17964122      15.54410340 
H      30.16852007      14.91434522      15.10033116 
H      26.32689761       9.51476926      25.75964210 
H      26.64221672      10.93050576      26.81420125 
H      26.97810319      11.03603564      25.06033881 
H      18.26444849      16.35072964      31.75865530 
H      18.44096818      18.11768686      31.56197098 
H      19.42208830      17.24744855      32.78377147 
H      19.52646395      29.67841490      27.60316924 
H      20.30090855      30.22716345      26.08307501 
H      21.03076132      30.65205524      27.67055021 
H      25.50788742      29.79918325      13.66368821 
H      23.83138416      30.00834333      14.25466403 
H      24.29528942      28.49970313      13.41189552 
H      25.27304885      16.74243338       9.97344857 
H      25.09756596      15.34437115      11.07735444 
H      26.66734153      15.65829101      10.26486523 
H      21.79921598       8.34443018      20.63191992 
H      21.47582159       8.91471573      22.29728192 
H      22.87948424       7.84017072      21.97061676 
H      21.63570868       8.26821423      24.92001346 
H      21.25603727       8.36353965      26.66700043 
H      22.56944631       9.37371703      25.97215043 
H      19.71440548      11.72298502      30.67741848 
H      18.41280859      12.45964088      29.68285618 
H      19.24270252      13.42941951      30.94859761 
H      18.93308893      20.19514749      33.06267446 
H      18.98827694      21.90377719      33.60016234 
H      20.37655534      21.19741833      32.69858222 
H      19.55312166      28.03459506      30.11759211 
H      19.44228865      27.13260437      31.66142879 
H      18.21219720      26.86136851      30.37612777 
H      22.19979527      33.16567167      23.53468021 
H      23.17944587      31.73663806      24.00234710 
H      21.74881257      32.19481820      24.96792818 
H      23.73666169      31.62730947      16.86341503 
H      23.66812165      32.82393530      18.19438117 
H      22.19664629      31.89637110      17.75392701 
H      26.58754733      26.48965616      10.25433672 
H      27.14750675      26.31061530      11.95358856 
H      26.02497687      27.63233487      11.51322799 
H      26.72807202      21.18258703       8.86789196 
H      24.97960958      20.95086727       9.21666420 
H      26.13299815      19.58065019       9.40613162 
H      25.93392392      12.89281599      11.49294665 
H      25.75508969      11.21980934      12.10157548 
H      26.58416772      12.45977149      13.09930195 
H      24.13551586       8.16545154      16.42360574 
H      22.53567544       8.97358987      16.47023835 
H      23.27412044       8.34049411      17.98333104 
H       8.81485861      23.47551554      14.69243994 
H       9.52033683      23.72297604      16.32507425 
H       9.09551747      22.07704145      15.77532088 
H       9.51281277      19.12965740      12.79279358 
H      10.36958674      20.53097649      13.53268866 
H       9.32871833      19.48371357      14.53682803 
H       8.35092378      16.03751069      16.30955444 
H       9.73580091      16.80843272      15.45633065 
H       8.68299157      17.78242283      16.52438970 
H       7.84234702      19.28763203      18.78575473 
H       7.02014728      18.57109953      20.20179877 
H       8.40449492      17.72327435      19.43539553 
H       8.16079069      22.08393453      18.23906829 
H       7.43537042      23.35619458      19.27065863 
H       8.35104226      21.98954829      20.01293340 
H      12.23980454      28.29707130      11.48922653 
H      10.79267087      27.71109105      12.36311994 
H      11.74712897      26.58414665      11.35851438 
H       7.79472263      26.88773093      22.82884515 
H       8.62834013      27.94798076      21.64840748 
H       8.78342828      28.26844055      23.40521964 
H       7.06794426      16.51069178      24.74675404 
H       7.33158241      18.16595841      25.37219547 
H       7.65696315      16.75172443      26.42058787 
H       9.85682052      11.39630117      16.14337259 
H       9.85197074      11.37106670      17.93371546 
H      10.76097130      10.12651842      17.02467707 
H      13.54155136      17.12753951       8.16803384 
H      12.13097623      18.04845781       8.77617435 
H      12.54232579      16.46077675       9.49359234 
H      11.18371902      27.13427764      16.43498586 
H      10.51767568      27.01709439      18.10550774 
H      10.81971790      25.53092035      17.15859333 
H       9.08866992      23.31910579      23.52694099 
H       8.81451942      21.62952242      24.08887347 
H       9.14342314      21.95558123      22.35831414 
H       9.56259095      14.13017046      20.71682589 
H       9.54714538      15.90413158      20.51444728 
H       9.32167241      15.19021226      22.14951368 
H      12.18726657      14.89019046      12.77007135 
H      11.61831644      15.60670270      14.30346709 
H      11.93064554      13.84359266      14.21045538 
H      12.92659164      21.35102016      10.89687757 
H      12.61584637      23.05865515      11.37405410 
H      12.25831196      21.72767060      12.51701004 
H      15.59712821      25.35509033       9.13312409 
H      15.55398656      23.89812031      10.18697204 
H      17.04757272      24.31000627       9.29081066 
H      13.72504995      30.61568569      19.36928372 
H      12.07464218      30.65276989      20.07505319 
H      12.60988569      29.24173085      19.09018205 
H      10.89033605      22.39630227      28.09613388 
H       9.47129246      21.29702802      28.03433260 
H      10.20745448      21.91898422      26.51270889 
H      11.33885273      10.58325285      22.28420991 
H      11.56860051      12.36640985      22.35738537 
H      12.38475700      11.30933599      23.54878611 
H      15.01165500      12.80664641      10.67798116 
H      14.80363453      13.39786051      12.36676426 
H      16.09507080      12.21861864      11.98626286 
H      16.93299887      19.97286400       7.64857757 
H      16.03885404      21.28856062       8.47546694 
H      16.04983221      19.64408997       9.17931656 
H      14.75658328      30.72049088      14.65848870 
H      13.68080460      30.10791522      15.95549220 
H      14.29742631      28.98509623      14.70751675 
H      10.33045910      25.43901826      26.82521307 
H      10.88980045      26.30794914      25.36613269 
H      11.05185233      27.06943775      26.98448475 
H      10.72506411      13.20465472      25.21349404 
H      10.69126312      14.92526969      25.71015861 
H      10.83124139      13.63165188      26.95165015 
H      14.27546280      10.89258974      14.02119476 
H      14.03179588      10.94326088      15.78840857 
H      14.70801495       9.47002154      15.02081139 
H      21.49681867      17.05575634       8.20791644 
H      22.64586818      16.33861073       9.38224933 
H      22.42260247      18.11568643       9.32594387 
H      19.86841168      30.75800900      13.22069248 
H      21.40627542      29.84736290      13.13037827 
H      20.71564615      30.26541939      14.72564977 
H      16.93877255      30.08018890      26.37500663 
H      16.51950979      28.62345233      27.32745426 
H      15.25879073      29.84260135      26.94632807 
H      14.18460966      15.68475649      30.56860666 
H      15.63510084      16.70296822      30.84122763 
H      15.73794144      15.28012653      29.76006845 
H      18.05571634       7.86360216      18.60465466 
H      19.04947519       8.16676546      20.05959443 
H      19.47540212       8.95418786      18.51383276 
H      19.67355972       8.45364375      14.23597461 
H      18.34391143       9.42802886      14.95547814 
H      19.35591091       8.37358047      15.99718656 
H      21.57656838      13.45426309       9.81008750 
H      21.11695829      11.76023261      10.15606538 
H      22.43250241      12.54216130      11.10001764 
H      21.85525018      21.95645442       7.25118736 
H      20.46642470      21.27552950       8.16526114 
H      21.85320930      20.23209664       7.73299581 
H      21.51879091      27.06158170       9.22339530 
H      22.77897251      26.75564632      10.46949220 
H      21.47967010      27.96703998      10.76890203 
H      19.26356865      32.03627069      16.06289542 
H      18.67548587      33.05408281      17.41620175 
H      17.72603193      31.62310955      16.88389506 
H      17.14423537      32.95038034      22.64212488 
H      18.57462551      32.02402292      23.21263573 
H      16.99349742      31.85972346      24.05242936 
H      14.98278700      27.62490961      29.26581019 
H      14.47604948      26.53476018      30.59311681 
H      13.88594919      26.25439982      28.91817218 
H      14.83043327      19.48838700      31.50720379 
H      14.22835627      21.07260178      32.08361278 
H      15.96424818      20.87238017      31.67958174 
H      15.00717625      11.16553509      28.68075726 
H      14.21833877      12.49642595      27.76559679 
H      14.97627653      12.82423462      29.35361468 
H      17.54825244       8.37310059      22.79748781 
H      16.66153618       8.17046650      24.34293952 
H      18.28612889       8.94068787      24.33988069 
