646
Properties=species:S:1:pos:R:3 i=97 optimized=T E=-10428.3082567177 pbc="F F F" jobid=246_80-Ag-89_8-000005-PBE
Ag      21.87258447      20.17044471      20.89658268 
Ag      24.70912435      20.17419891      21.80512580 
Ag      20.47317537      22.69118228      20.45464061 
Au      19.73135783      20.95911326      22.73092768 
Ag      20.00153964      18.12306199      21.85509677 
Ag      21.14881362      23.48905694      23.17003795 
Ag      20.39478316      21.73667753      25.43226418 
Ag      20.67828811      18.92611557      24.60831163 
Au      20.92677163      16.09548996      23.71617371 
Ag      21.85539812      16.09101831      20.91368222 
Ag      22.73353313      16.10147939      18.08901463 
Ag      23.05565014      18.88143094      17.21949077 
Ag      23.32248644      21.74391858      16.33225922 
Ag      22.63466252      23.46443074      18.60577401 
Ag      21.85869614      25.19575020      20.88908319 
Ag      23.34602432      22.68400253      21.35056329 
Ag      22.59345894      20.95985635      23.61027790 
Au      22.87474621      18.14562223      22.76890061 
Ag      23.77216538      18.13335853      19.97502400 
Ag      24.05522363      20.93706985      19.09217418 
Ag      20.89207139      14.01446919      19.01454126 
Ag      21.82187801      14.01891689      16.18406911 
Ag      22.12269048      16.83498473      15.31081616 
Ag      22.38325255      19.69171596      14.41022906 
Ag      22.68661808      22.52293367      13.55852517 
Ag      21.96962021      24.29464874      15.84779517 
Ag      21.19997089      26.04263637      18.14045507 
Ag      20.47301685      27.75091445      20.43473308 
Ag      25.41269184      22.51025421      14.50419280 
Ag      24.81116948      24.26711627      16.74657028 
Ag      24.00380776      25.95391898      19.03486091 
Ag      23.19661800      27.73778823      21.28060161 
Ag      22.54874027      26.03498349      23.64130391 
Ag      21.81573663      24.28429748      25.85608291 
Ag      21.04467899      22.52005196      28.11574609 
Ag      21.36099444      19.73064945      27.38608154 
Ag      21.59676725      16.92399027      26.46866756 
Ag      21.83433229      14.07248271      25.58044537 
Ag      22.81793386      13.99554787      22.81860478 
Ag      23.67193530      14.07310966      19.98766720 
Ag      24.54098155      14.08711643      17.13805730 
Ag      24.93421253      16.82126601      16.23571062 
Au      25.15991766      19.66632154      15.40760606 
Ag      23.55247195      18.94246794      25.54892363 
Ag      23.70806036      16.13618920      24.64506981 
Ag      24.75073172      16.05672316      21.86461017 
Ag      25.53642095      16.08710418      19.01155564 
Au      25.95204440      18.87245989      18.14646942 
Ag      26.12623644      21.69070870      17.24911073 
Ag      25.52974433      23.47631136      19.53480733 
Au      24.68858036      25.18847887      21.76198618 
Ag      24.05851585      23.50599030      24.09964149 
Ag      23.20100045      21.75892717      26.28936392 
Ag      26.20528332      22.68920983      22.27018791 
Ag      25.44912671      20.95688433      24.54493478 
Ag      25.68794940      18.12917397      23.67792711 
Ag      26.64931816      18.11108809      20.87486124 
Ag      26.91197288      20.92234998      20.00065470 
Ag      27.56051083      20.16353633      22.71704947 
Au      27.50669259      15.28558698      21.25465336 
Ag      28.37087276      17.36618431      18.64161797 
Ag      28.63731616      20.01029025      17.72837350 
Ag      28.32244501      23.20292484      18.84927844 
Ag      27.67250164      24.95198658      20.97125484 
Ag      26.65882191      24.88900573      24.14131908 
Ag      25.87955692      23.28385139      26.33193689 
Ag      25.60409018      20.03827186      27.30385258 
Ag      25.77002174      17.31541364      26.56661493 
Ag      26.69907873      15.38906601      23.91120922 
Ag      28.51204127      17.50031516      22.98522697 
Ag      29.28333102      19.37190098      20.58582257 
Ag      28.97092518      22.32522101      21.54712019 
Ag      28.01484000      22.29332530      24.55996531 
Au      27.66430422      19.25478739      25.39344615 
Ag      25.51504606      13.33666430      22.16549502 
Ag      26.31527386      13.32990227      19.28993465 
Ag      27.26342072      15.16303844      16.94783964 
Ag      27.52867273      17.97791364      15.91253970 
Ag      27.72121477      20.80881087      14.96583822 
Ag      27.61525940      23.75905769      15.99946752 
Ag      26.82355473      25.64530318      18.23624570 
Ag      26.00589487      27.40424590      20.52858836 
Au      25.08544853      27.40356595      23.41805998 
Ag      24.41452910      25.76513858      25.81803607 
Ag      23.54961585      23.99205690      28.06806470 
Ag      23.41307303      21.06094034      29.04715441 
Ag      23.56957915      18.16102747      28.27993581 
Ag      23.73428027      15.30632931      27.40474656 
Ag      24.68065486      13.50298920      25.06365363 
Ag      24.12795165      11.76845640      15.23095067 
Ag      23.98705008      14.82842162      14.36385741 
Ag      24.20721889      17.62230027      13.51786520 
Ag      24.53978744      20.39706121      12.66788443 
Au      25.45696844      23.35150156      11.61350850 
Ag      24.07518616      25.07438825      14.05818098 
Ag      23.33123114      26.75984138      16.30719771 
Ag      22.61819065      28.48472966      18.54131220 
Au      22.47967090      30.63038050      20.97733758 
Ag      21.14260650      28.52930333      23.21307583 
Ag      20.37786538      26.80698050      25.45771889 
Ag      19.68240216      25.06178930      27.71020049 
Ag      19.36549459      23.46123547      30.44208130 
Ag      19.21672962      20.47898671      29.20347434 
Ag      19.46334662      17.69355834      28.29414163 
Ag      19.71277762      14.91473812      27.46261399 
Au      20.52066705      11.79427393      26.99962177 
Ag      20.94288872      11.97049665      23.69903334 
Ag      21.80258574      12.01882276      20.90878570 
Ag      22.74585174      12.01534866      18.13016295 
Ag      29.56823857      14.49352867      23.27220774 
Ag      31.16179574      18.42930171      18.13067137 
Ag      30.56946818      24.75132330      20.23835578 
Ag      28.48029910      24.74769634      26.57837443 
Ag      27.83265266      18.37115114      28.51547036 
Ag      28.91775549      27.49284886      19.09799229 
Ag      30.20771210      18.65626888      14.94056531 
Ag      28.05480741      11.94501509      21.64256618 
Ag      25.40511530      16.56871240      29.92119445 
Au      25.94101246      26.40858188      28.24461136 
Ag      26.41315715      26.61808533      15.38539509 
Ag      23.11656754      28.53864273      25.59839475 
Ag      21.55319121      18.91402972      30.42783253 
Ag      23.85015105      11.05904912      23.19359740 
Ag      26.87001315      15.79294947      13.89374194 
S      29.59123643      22.61993509      26.49189303 
S      29.43700576      18.12846885      26.73570443 
S      30.80686606      16.50285623      22.79058044 
S      31.65619960      19.89593622      19.96963658 
S      30.96709862      23.61685735      22.32254561 
S      27.88393734      27.04140102      27.05108457 
S      30.68438378      26.09339130      18.24052110 
S      31.25457779      16.92547286      16.24956025 
S      28.84814957      12.27749475      23.89451640 
S      26.66465233      18.50424622      30.61432079 
S      28.00372469      26.58701019      22.88139410 
S      29.66668368      22.19871420      16.97405713 
S      28.94635240      14.99686456      19.19187223 
S      26.64690274      14.93177329      26.35850382 
S      25.87872108      22.17171791      28.61970373 
S      24.02837159      25.97246638      29.53143139 
S      27.39040667      29.25834778      19.64031118 
S      29.41032550      20.15785784      13.25942108 
S      27.36651077      11.08500372      19.51477193 
S      24.10985091      14.56431978      29.75419296 
S      22.55391028      20.91642433      31.37140971 
S      24.88454667      29.65372304      24.33203537 
S      28.11116865      25.37150678      14.18016403 
S      27.82903672      13.82055901      14.94124031 
S      24.42061846      11.08714837      25.55432789 
S      20.30039317      16.83458152      30.47208492 
S      21.32214288      28.29331061      27.20602527 
S      25.02166328      28.54059495      15.89350069 
S      26.21295897      17.27544453      12.09039622 
S      23.28259006      10.02726767      21.06758895 
S      20.20166086      10.18811078      25.30475768 
S      20.86367379      13.18602865      28.86234917 
S      18.28677013      21.49564783      31.29543290 
S      20.51093528      25.52192214      30.01359620 
S      21.04829384      30.99555521      22.81423947 
S      23.97527370      30.50262550      19.17034660 
S      24.58057425      25.54105666      11.64267211 
S      26.49567866      21.25913756      11.35938169 
S      24.05272077      12.72468266      13.02090146 
S      24.53447709      10.52909526      17.24579857 
C      31.30472316      22.96734860      25.92840694 
C      30.81440272      19.27878383      27.11352145 
C      31.84468866      16.86600833      24.25993242 
C      32.84210460      18.98190502      21.03340325 
C      32.52505411      22.66791140      22.12911852 
C      29.03677930      27.60461433      28.37262287 
C      32.20375526      27.12686207      18.39979838 
C      33.00959438      16.92160993      15.68087740 
C      30.36695934      11.23748397      23.99997403 
C      27.82483707      17.85950423      31.89539484 
C      29.69780222      26.84208600      23.54935445 
C      31.47756959      22.47739087      17.15946025 
C      30.74934485      14.74483039      19.45583374 
C      28.31137750      14.47734515      27.00307313 
C      27.39728450      22.21558537      29.66080379 
C      24.64936008      25.13350352      31.04357188 
C      28.02193242      30.01125407      21.19350938 
C      30.54051001      21.60635379      13.26832280 
C      28.81921338      11.23507964      18.39952433 
C      25.29943843      13.18212059      29.52760129 
C      23.88883696      20.37324902      32.51074220 
C      26.25102853      30.03274807      25.49315049 
C      29.71530799      26.20426360      14.51063508 
C      29.63643199      13.85874092      14.61607427 
C      26.07646675      10.30639560      25.70974442 
C      18.96135569      17.18486285      31.68559799 
C      20.39795793      29.87838698      27.05877691 
C      24.62784114      29.21997207      14.22865725 
C      25.68297265      16.11380051      10.76490137 
C      22.18469589       8.63427744      21.56068533 
C      21.43793478       8.87157728      25.63881624 
C      19.70255493      12.59658312      30.15459046 
C      19.16745614      21.09886524      32.85916060 
C      19.49207099      26.86852931      30.73382930 
C      22.01381339      32.02591284      23.98908209 
C      23.54145435      31.88920237      18.05092818 
C      26.02321015      26.63924214      11.34608842 
C      26.31795328      20.81429749       9.58885535 
C      25.68465247      12.34713468      12.26277900 
C      23.82979510       8.85014178      17.01515319 
Ag      19.06579628      20.15849717      20.00131473 
Ag      16.22276399      20.17584871      19.10018547 
Au      21.22469792      20.95247274      18.16792192 
Ag      20.90684161      18.11794876      19.03574286 
Ag      19.79079097      23.48004604      17.74176207 
Ag      20.56271974      21.73383459      15.47040080 
Ag      20.23467558      18.92908197      16.30169083 
Ag      19.98086279      16.10301804      17.17876006 
Ag      19.03082971      16.09398297      19.97006817 
Ag      18.16246725      16.10302375      22.81767379 
Au      17.85067855      18.88340172      23.69924732 
Ag      17.60871503      21.71807147      24.54894324 
Ag      18.30738781      23.46638104      22.30685552 
Ag      19.08727646      25.18648583      20.02880239 
Au      17.59843260      22.68218219      19.55252881 
Ag      18.34939520      20.95305280      17.29289907 
Ag      18.05174329      18.14701537      18.12938362 
Ag      17.14677076      18.13401859      20.93293478 
Ag      16.86611448      20.93515649      21.80949424 
Ag      19.99878545      14.00351520      21.89333397 
Ag      19.06825721      14.01743072      24.71838890 
Ag      18.77502501      16.83552402      25.59725698 
Ag      18.55384091      19.68469299      26.47566115 
Ag      18.27485838      22.52801539      27.30331562 
Ag      18.96250211      24.29102712      25.06198179 
Au      19.73416871      26.05355085      22.77719286 
Ag      15.51893565      22.48478523      26.37114643 
Ag      16.13735951      24.25138556      24.16373818 
Ag      16.92922352      25.95345365      21.88135402 
Ag      17.74579594      27.68906149      19.59961169 
Ag      18.40870897      26.03188760      17.26861556 
Ag      19.14081357      24.27670246      15.05840915 
Ag      19.91508347      22.50534974      12.78857273 
Ag      19.58357227      19.72035267      13.51708537 
Ag      19.31663666      16.92525982      14.45317755 
Ag      19.06802084      14.07810516      15.32874665 
Ag      18.07520701      14.01370075      18.07326326 
Ag      17.21405176      14.08288714      20.91995311 
Ag      16.35435463      14.08518850      23.76581109 
Ag      15.95562688      16.81025989      24.67904131 
Ag      15.73481803      19.63974032      25.50709558 
Ag      17.36777600      18.93862484      15.35902184 
Ag      17.19310456      16.13496600      16.26024742 
Au      16.16943698      16.07295722      19.03259444 
Ag      15.35976055      16.07789389      21.88019548 
Au      14.95557705      18.86201535      22.77916560 
Ag      14.79577170      21.67571886      23.65972836 
Ag      15.40878621      23.47364358      21.38381783 
Ag      16.26243743      25.18084528      19.15443066 
Ag      16.89386887      23.51360068      16.80539517 
Ag      17.75643385      21.75421111      14.61503426 
Ag      14.74081326      22.67979409      18.64757560 
Ag      15.50267879      20.95312380      16.36215837 
Ag      15.21287418      18.14391331      17.20898876 
Ag      14.29171554      18.11899302      20.02268832 
Ag      13.99661533      20.92568815      20.91621849 
Ag      13.37681960      20.16236218      18.18293267 
Ag      13.41356999      15.29123123      19.67115636 
Ag      12.48915108      17.37368453      22.24120882 
Au      12.26251840      19.99133939      23.16820966 
Ag      12.62560625      23.23826657      22.04682319 
Ag      13.29368701      24.96941229      19.92850890 
Ag      14.32108207      24.89192894      16.78250824 
Ag      15.08782336      23.28357479      14.57804296 
Ag      15.33674611      20.04437703      13.59687964 
Ag      15.14049078      17.33748079      14.33400987 
Ag      14.23904617      15.40932673      16.97537959 
Ag      12.41954423      17.49549408      17.92321361 
Ag      11.64411528      19.39109173      20.28569777 
Ag      11.97833744      22.34668473      19.34125217 
Ag      12.95652626      22.31902845      16.37132749 
Ag      13.22948697      19.31296188      15.47577917 
Ag      15.37214325      13.33950897      18.72526150 
Ag      14.57909808      13.30001120      21.62387022 
Ag      13.62200738      15.14283793      23.92128908 
Ag      13.36658926      17.97375781      24.99637178 
Ag      13.18688927      20.84564805      25.92265476 
Ag      13.34817065      23.77799597      24.88792232 
Ag      14.13389502      25.65946827      22.66885191 
Ag      14.96576044      27.41534442      20.39942811 
Au      15.86689902      27.36461640      17.45801704 
Ag      16.55181569      25.76265002      15.07998251 
Ag      17.42285211      23.99355048      12.83946083 
Ag      17.54494752      21.06653465      11.85227341 
Ag      17.36194693      18.16838626      12.62150853 
Ag      17.18444507      15.31962088      13.49793780 
Ag      16.22493104      13.49461323      15.80296582 
Ag      16.78599962      11.77073801      25.67716378 
Ag      16.90953866      14.82052978      26.54810712 
Ag      16.71564114      17.61501967      27.42913363 
Au      16.45155364      20.43859792      28.18777571 
Ag      15.61113758      23.24084760      29.33843585 
Ag      16.83842946      25.04758831      26.88089191 
Ag      17.59956853      26.76159836      24.62060712 
Ag      18.32064473      28.47994020      22.32189992 
Ag      18.60673799      30.56867593      19.93534915 
Ag      19.79197066      28.54275830      17.68238742 
Ag      20.57242131      26.79879932      15.45406922 
Ag      21.25155744      25.06170294      13.18569828 
Ag      21.63516172      23.37069575      10.45331890 
Ag      21.72476307      20.45153140      11.69973316 
Ag      21.46845098      17.67177484      12.61412716 
Ag      21.16691439      14.89557212      13.44650267 
Au      20.37575757      11.76427737      13.93441523 
Ag      19.93613659      11.99199647      17.20445365 
Ag      19.07802659      12.03558088      19.99489171 
Ag      18.13272815      12.01664498      22.76628243 
Ag      11.42074395      14.43404681      17.61051966 
Au       9.62675263      18.38469266      22.83055436 
Ag      10.37587086      24.77111065      20.67134707 
Ag      12.46544253      24.68178436      14.32968350 
Ag      13.06323465      18.37447168      12.44194344 
Ag      12.06486305      27.51948009      21.75040088 
Ag      10.75749453      18.82258064      26.03150961 
Ag      12.89726687      11.85965435      19.21618565 
Ag      15.50351463      16.61219694      10.98094214 
Au      15.01617448      26.37959256      12.65471123 
Ag      14.51195700      26.59003361      25.57101584 
Ag      17.82008937      28.55916012      15.30696865 
Ag      19.37062695      18.88837106      10.47633892 
Ag      17.03153811      11.05769171      17.67849023 
Ag      14.03210429      15.75628514      26.95299182 
S      11.37497484      22.53667166      14.43106315 
S      11.44831744      18.08222233      14.20551521 
S      10.16775255      16.41433301      18.14798347 
S       9.23410713      19.72857475      20.94262099 
S       9.94150629      23.60129720      18.61588015 
S      13.06256066      26.97557671      13.84995371 
S      10.31365826      26.12819477      22.65938039 
S       9.74856106      17.02871082      24.75956881 
S      12.13062409      12.22430087      16.96250150 
S      14.21077353      18.53916227      10.32817309 
S      12.94800408      26.58929347      18.01169961 
S      11.23501818      22.17861035      23.84691639 
S      11.97211569      14.98540203      21.73989624 
S      14.27903038      14.94074023      14.51658610 
S      15.08187330      22.18029438      12.28777258 
S      16.94370583      25.97635752      11.37860562 
S      13.55087643      29.31010357      21.16745654 
S      11.46902753      20.40774384      27.67935740 
S      13.57087764      11.03873965      21.35792992 
S      16.83864777      14.63260794      11.12796759 
S      18.39203769      20.89731943       9.52435017 
S      16.05647162      29.65465565      16.59235674 
S      12.78827647      25.33064240      26.73914431 
S      13.06792324      13.77584899      25.91866826 
S      16.50341001      11.07904024      15.31200681 
S      20.58529000      16.78800813      10.46120642 
S      19.60533060      28.27614303      13.70085368 
S      15.92002811      28.51481799      25.11714631 
S      14.69995661      17.15659023      28.81379196 
S      17.55933669      10.07223117      19.83147009 
S      20.70773179      10.17777095      15.64682329 
S      20.02051764      13.14117638      12.06283808 
S      22.71616418      21.39265783       9.61044830 
S      20.46593898      25.42787058      10.84916009 
S      19.98330764      31.00854049      18.01165043 
S      17.02399175      30.50462484      21.74099817 
S      16.37480885      25.51865734      29.29360109 
S      14.53639348      21.09348516      29.57787972 
S      16.82943827      12.71289180      27.89466420 
S      16.37611859      10.50804292      23.67695267 
C       9.65990736      22.86521703      15.00354608 
C      10.04589376      19.18947723      13.78245522 
C       9.10539874      16.75516400      16.68963785 
C       8.06242406      18.79255755      19.88866243 
C       8.41401113      22.61259714      18.85527372 
C      11.90332400      27.53478493      12.53225818 
C       8.79520318      27.16800942      22.53261355 
C       8.02122656      16.94754269      25.39612626 
C      10.59705721      11.20704601      16.83517889 
C      13.04124972      17.89609913       9.05487366 
C      11.25328205      26.80041816      17.32894655 
C       9.42996175      22.38091530      23.56165172 
C      10.15629869      14.71625600      21.59437027 
C      12.62678961      14.46875176      13.85432037 
C      13.57165999      22.24201854      11.23561279 
C      16.34939281      25.13675715       9.85610564 
C      12.91953007      30.00244923      19.58758218 
C      10.34273064      21.85030528      27.51725499 
C      12.09668789      11.15814700      22.44938417 
C      15.67572652      13.22323432      11.32428501 
C      17.03972417      20.35479813       8.40477678 
C      14.68292489      30.02756683      15.43614424 
C      11.19606989      26.18367706      26.40301223 
C      11.25957045      13.82463196      26.23691526 
C      14.86372332      10.27264266      15.12341173 
C      21.92142855      17.08416700       9.23024599 
C      20.54532963      29.85340847      13.82782830 
C      16.31270481      29.13559566      26.80502070 
C      15.22427642      15.93607543      30.08705709 
C      18.64568331       8.65639554      19.37943974 
C      19.48367232       8.84675895      15.32450847 
C      21.17601847      12.54452872      10.76883378 
C      21.82175084      20.95836639       8.06410607 
C      21.46348431      26.77091993      10.09272431 
C      18.95299948      32.01801778      16.87141509 
C      17.47214381      31.83754736      22.92058184 
C      14.88365821      26.54698637      29.61248276 
C      14.81576055      20.46522047      31.27525452 
C      15.19240005      12.29675756      28.62176126 
C      17.09501756       8.83718480      23.92135898 
H      31.80950118      22.00455615      25.78030375 
H      31.83119676      23.53506421      26.70354825 
H      31.30574605      23.52310647      24.98446430 
H      31.46827192      19.32520208      26.23414399 
H      31.37707276      18.88094785      27.96585079 
H      30.43713218      20.28190590      27.34058721 
H      32.31180481      17.84731153      24.11044670 
H      32.62676225      16.10310028      24.34377810 
H      31.23969964      16.88711451      25.17270319 
H      33.78604522      18.85609769      20.49168525 
H      32.43874176      18.00628743      21.32648219 
H      33.01892406      19.58493453      21.93254678 
H      33.36527790      23.36943148      22.07896243 
H      32.49790180      22.04472499      21.22860179 
H      32.64044200      22.02693188      23.01180073 
H      30.01137196      27.79107274      27.90608195 
H      29.14577419      26.85500988      29.16138959 
H      28.65097255      28.53754516      28.79940431 
H      32.15872726      27.92474428      17.64941932 
H      33.07573538      26.49218074      18.20365150 
H      32.29209571      27.56851473      19.39638681 
H      33.04765686      16.47869134      14.67886651 
H      33.59519527      16.30553340      16.37310081 
H      33.42865926      17.93129995      15.64921912 
H      30.06547436      10.18367710      24.01571833 
H      30.88745777      11.48091856      24.93352259 
H      31.03769433      11.41203053      23.15402504 
H      28.56937191      18.63518236      32.10887916 
H      28.33236942      16.94957485      31.56312074 
H      27.25070893      17.64608248      32.80452360 
H      30.24865358      27.49384436      22.86044416 
H      30.22775024      25.88922310      23.65045874 
H      29.60198844      27.32889012      24.52727555 
H      31.99246629      21.98547487      16.32596547 
H      31.82149046      22.05144816      18.10866865 
H      31.66011205      23.55799478      17.13763840 
H      31.25511591      14.94856931      18.50446814 
H      30.91338736      13.70478930      19.76176580 
H      31.11549570      15.42272034      20.23493318 
H      28.63436685      13.55702858      26.50301115 
H      28.23044826      14.31757363      28.08471179 
H      29.02006230      15.28832242      26.80094751 
H      27.44915439      23.19048421      30.15925825 
H      28.28053147      22.07726422      29.02680270 
H      27.32855368      21.40955157      30.40029096 
H      23.76122412      24.81439028      31.60370291 
H      25.23115310      25.84192349      31.64306121 
H      25.25412168      24.25439865      30.79727505 
H      28.92301840      30.59332912      20.97108847 
H      28.24001719      29.24538161      21.94703349 
H      27.23735712      30.67648677      21.57480350 
H      31.51733126      21.30862485      12.87189366 
H      30.65062341      22.02288880      14.27543506 
H      30.09377245      22.36748463      12.61664745 
H      28.46752359      11.03289506      17.38017301 
H      29.57249731      10.49238411      18.68455347 
H      29.25005553      12.24197031      18.43238422 
H      24.71292320      12.28870064      29.27990138 
H      25.84657828      13.01642029      30.46208476 
H      25.99938136      13.38439689      28.70965442 
H      24.41120754      21.27098590      32.86282906 
H      24.60511270      19.71443579      32.00737032 
H      23.44162187      19.85414740      33.36583363 
H      27.13035313      30.31124975      24.90019185 
H      26.49843407      29.17306573      26.12425326 
H      25.94392469      30.88035010      26.11690390 
H      29.70560268      27.19879198      14.05098967 
H      30.50372919      25.59769989      14.04878274 
H      29.91219498      26.29177649      15.58493123 
H      29.81113682      13.72322529      13.54292039 
H      30.09036206      13.02577592      15.16648653 
H      30.08583274      14.79986914      14.95234001 
H      25.99857175       9.24581830      25.44584621 
H      26.38882212      10.39886956      26.75697742 
H      26.81793606      10.79648238      25.06903052 
H      18.23128140      16.36875288      31.62677764 
H      18.45968154      18.13566892      31.47326698 
H      19.39488883      17.21213437      32.69189374 
H      19.48143250      29.78830525      27.65408778 
H      20.13241437      30.10054010      26.01938721 
H      21.01504450      30.68829629      27.46437858 
H      25.53718688      29.65300834      13.79648768 
H      23.87579374      30.00789722      14.35576228 
H      24.23216924      28.44826945      13.55925473 
H      25.20256828      16.70242847       9.97424898 
H      24.97518760      15.36670670      11.14095545 
H      26.56840330      15.61307919      10.35681395 
H      21.74548530       8.21121752      20.64931604 
H      21.38156145       8.96633380      22.22772617 
H      22.78757673       7.86829469      22.06184597 
H      21.41525009       8.17489964      24.79228625 
H      21.14533900       8.34409327      26.55351445 
H      22.44323471       9.29382668      25.74677234 
H      20.07442070      11.64780126      30.55722391 
H      18.68998871      12.47030091      29.75500758 
H      19.70600321      13.35900801      30.94336826 
H      18.83458725      20.11022076      33.19669140 
H      18.89511543      21.84950618      33.60952917 
H      20.25297364      21.09046761      32.71018725 
H      19.84453048      27.80977324      30.29482891 
H      19.65015915      26.88669291      31.81812370 
H      18.42817754      26.72613156      30.51320410 
H      22.12568194      33.02723507      23.55830622 
H      22.99709663      31.58532690      24.18504539 
H      21.44226309      32.09095141      24.92252219 
H      24.08738821      31.71345043      17.11568753 
H      23.87889512      32.82872870      18.50271460 
H      22.46332708      31.92543245      17.85832002 
H      26.34930983      26.51155398      10.30786419 
H      26.84336971      26.40581067      12.03418593 
H      25.69012362      27.67253192      11.50004224 
H      26.98976467      21.44503666       8.99609651 
H      25.28330068      20.93438913       9.24871872 
H      26.62529699      19.76475324       9.50239450 
H      25.78343605      12.93772811      11.34442617 
H      25.70636105      11.28052436      12.01196139 
H      26.50627683      12.58985536      12.94568011 
H      24.52848302       8.26043225      16.41060482 
H      22.85163849       8.88750760      16.52333521 
H      23.73423700       8.39896464      18.01016482 
H       9.12138921      23.41900396      14.22658886 
H       9.65639228      23.42895795      15.94270561 
H       9.16967099      21.89681159      15.16257307 
H       9.52171588      18.78478550      12.90947957 
H      10.39762772      20.20581886      13.57437505 
H       9.36074824      19.20956447      14.63880744 
H       8.34392222      15.97138000      16.60984633 
H       9.70062200      16.79974615      15.77108709 
H       8.61306726      17.72221852      16.85032078 
H       7.89682276      19.38866305      18.98247142 
H       7.11403169      18.67431247      20.42396324 
H       8.47445794      17.81567958      19.61306384 
H       8.29865545      21.95689037      17.98344842 
H       7.55632241      23.29209591      18.91289050 
H       8.46982228      22.00103903      19.76204557 
H      12.28121408      28.47296022      12.10989918 
H      10.92751615      27.71093805      13.00019782 
H      11.80045041      26.78817073      11.73985174 
H       7.92518065      26.53880664      22.75350171 
H       8.68458782      27.60555213      21.53642881 
H       8.86300017      27.96925094      23.27769763 
H       7.42918529      16.31986007      24.72038313 
H       7.57087807      17.94159610      25.46572459 
H       8.05427924      16.48712175      26.39071313 
H      10.08480956      11.47037328      15.90248093 
H       9.92472014      11.37888248      17.68046800 
H      10.88452964      10.14962041      16.80593926 
H      13.60639702      17.69173620       8.13806758 
H      12.28997502      18.66878202       8.85446742 
H      12.54242859      16.98124797       9.38693098 
H      11.34495662      27.27947641      16.34679371 
H      10.68368309      27.44657653      18.00786752 
H      10.74410769      25.83576876      17.23292190 
H       9.20416428      23.45157778      23.63454774 
H       8.88941882      21.82048753      24.33345576 
H       9.15576942      22.00045203      22.57198965 
H       9.98179623      13.66093336      21.35427068 
H       9.75263869      15.35024488      20.79723781 
H       9.69321558      14.97244634      22.55380998 
H      12.72094502      14.30234837      12.77480164 
H      11.91011602      15.27602916      14.04290029 
H      12.30697677      13.54830827      14.35632373 
H      13.64153583      21.44245048      10.48934013 
H      13.52881466      23.22237302      10.74719588 
H      12.68352513      22.10083909      11.86211981 
H      15.77248903      25.84325791       9.24963044 
H      15.74571568      24.25394455      10.09151029 
H      17.24773482      24.82361686       9.30899225 
H      13.69515405      30.66947827      19.19130330 
H      12.00618420      30.57462216      19.78419150 
H      12.72207816      29.20883000      18.85724522 
H      10.77069213      22.66513043      28.11444348 
H       9.35455894      21.58543618      27.90899530 
H      10.26195208      22.18160007      26.47610053 
H      11.35816684      10.40767081      22.14694750 
H      11.65304025      12.15914011      22.41937350 
H      12.43608368      10.95151466      23.47203230 
H      15.14138782      13.05903033      10.38213815 
H      14.96329454      13.39991767      12.13748449 
H      16.27885176      12.33924340      11.56595324 
H      17.47177740      19.81571814       7.55430393 
H      16.52734052      21.25430901       8.04271012 
H      16.31832692      19.71438106       8.92440161 
H      14.98502705      30.86843716      14.80105464 
H      13.80828643      30.31258798      16.03300863 
H      14.43034369      29.16117782      14.81610957 
H      10.39537167      25.57640745      26.84227898 
H      11.01637776      26.29163699      25.32750818 
H      11.20853545      27.16954119      26.88090811 
H      10.79997392      12.99929149      25.67973314 
H      10.82034212      14.77160222      25.90452440 
H      11.07811231      13.68566040      27.30856162 
H      14.57127728      10.36002175      14.07000494 
H      14.10288483      10.75236548      15.74926698 
H      14.95178688       9.21337158      15.38939337 
H      21.47992675      17.11050571       8.22742355 
H      22.62855664      16.24845919       9.29360698 
H      22.45186405      18.02283388       9.42561779 
H      19.94347621      30.66070003      13.39505201 
H      21.46973692      29.74053001      13.24898119 
H      20.79634256      30.09443774      14.86694422 
H      17.06987876      29.92263533      26.70652583 
H      16.69962748      28.33960755      27.45111074 
H      15.40409157      29.56097637      27.24629476 
H      14.33887887      15.41001719      30.46207647 
H      15.69164832      16.49034982      30.90995119 
H      15.94217841      15.21251062      29.68431265 
H      18.03919723       7.88619982      18.88930292 
H      19.07084875       8.24923294      20.30461449 
H      19.45916702       8.96507490      18.71383771 
H      19.78628897       8.30836173      14.41945795 
H      18.47636132       9.26047255      15.20288751 
H      19.50541872       8.16237015      16.18100701 
H      21.15707986      13.29478873       9.96868455 
H      20.81226147      11.58550970      10.38349235 
H      22.19320380      12.43620008      11.16162136 
H      22.10360916      21.68159846       7.29049398 
H      20.73658727      20.97239608       8.21472015 
H      22.13728405      19.95511475       7.75450301 
H      21.30863478      26.75462688       9.00790788 
H      22.52905838      26.65310807      10.31852130 
H      21.09494108      27.71900921      10.50257998 
H      19.45276439      32.05610274      15.89637919 
H      18.88171651      33.03158925      17.28223195 
H      17.95184087      31.59053212      16.75264350 
H      17.08808979      32.78736494      22.53093288 
H      18.55626716      31.90444189      23.06213462 
H      16.98126102      31.60700886      23.87379571 
H      15.15161996      27.59688220      29.44529676 
H      14.58736888      26.41044707      30.65859617 
H      14.05927768      26.26797376      28.94706427 
H      14.64602843      19.38174396      31.25201733 
H      14.07987845      20.94022157      31.93503519 
H      15.83141851      20.68597032      31.62236170 
H      15.17507020      11.22167626      28.83342186 
H      14.37624590      12.55878623      27.93935288 
H      15.08037343      12.85271189      29.55996843 
H      17.18431556       8.37267941      22.93195012 
H      16.40716149       8.24991247      24.54058356 
H      18.07742244       8.88772445      24.40350427 
