646
Properties=species:S:1:pos:R:3 i=99 optimized=T E=-9687.6560188535 pbc="F F F" jobid=246_80-Ag-10_2-000010-PBE
Au      21.91233742      20.19372338      20.88317340 
Au      24.82610259      20.20128966      21.78741539 
Ag      20.46575181      22.70248976      20.43428837 
Au      19.74683664      20.96918027      22.70242000 
Au      20.01585501      18.15901280      21.84231371 
Au      21.17625592      23.50867225      23.14045922 
Au      20.42748851      21.77096292      25.41429534 
Au      20.71690187      18.96637091      24.60745573 
Au      20.98297185      16.15725419      23.72186615 
Au      21.89300718      16.10281990      20.94226485 
Au      22.75601202      16.08245956      18.09516050 
Au      23.06925379      18.89333705      17.21586295 
Au      23.28554923      21.69816695      16.33012917 
Au      22.61441125      23.46164112      18.58295714 
Au      21.88585021      25.19490283      20.84702172 
Au      23.40170371      22.71704208      21.32843505 
Au      22.66447837      20.99042218      23.61310599 
Au      22.94446961      18.15862872      22.82190051 
Au      23.82884332      18.14255212      19.98210025 
Au      24.10970051      20.93336857      19.07097555 
Au      20.90501886      13.98993170      19.00110161 
Ag      21.85512205      13.99814373      16.14334484 
Au      22.16952233      16.85799800      15.27458862 
Au      22.32735002      19.71971023      14.36639162 
Au      22.63145511      22.56004613      13.52475655 
Au      21.94922196      24.34057903      15.81760806 
Au      21.14178019      26.09415283      18.11392785 
Au      20.45070155      27.80486926      20.41843820 
Au      25.33891306      22.43710622      14.37801702 
Au      24.76360980      24.27007514      16.68284744 
Au      24.03621827      25.96605990      18.94748932 
Au      23.19911730      27.77658112      21.19376719 
Au      22.61193591      26.08038940      23.58226965 
Au      21.86340828      24.37557484      25.83878949 
Au      21.06828763      22.59587219      28.13786085 
Au      21.44829757      19.74815486      27.42276562 
Au      21.66881970      16.98351045      26.47400256 
Au      21.82974521      14.09166363      25.57592514 
Au      22.87952518      13.99395198      22.82307068 
Au      23.71772517      14.02830416      20.03811292 
Au      24.53998973      14.00893438      17.13935915 
Au      24.96763754      16.81551600      16.19702470 
Au      25.14844419      19.57366176      15.33932713 
Au      23.69397552      18.95857661      25.57654557 
Ag      23.83867779      16.13792752      24.68768734 
Au      24.85633875      16.08659685      21.90817492 
Au      25.59936251      16.09832470      19.05152432 
Ag      26.06621320      18.85973346      18.10823448 
Au      26.16257997      21.64021427      17.20715351 
Au      25.62724231      23.47450389      19.46949492 
Ag      24.78112707      25.24060004      21.65303243 
Au      24.13412187      23.59484589      24.05602963 
Au      23.26099764      21.83893721      26.31346352 
Au      26.30183671      22.79039598      22.23823181 
Au      25.52677500      21.04005795      24.58946428 
Au      25.79509993      18.14835486      23.74696034 
Au      26.75259488      18.10694789      20.84773018 
Au      27.06641842      20.97588871      19.90832865 
Au      27.72221309      20.22245810      22.73276956 
Au      27.64622137      15.23820096      21.40002669 
Au      28.59903451      17.30077124      18.57234690 
Au      28.88400693      19.89471873      17.66525989 
Au      28.55542577      23.36330543      18.71889549 
Au      27.85585359      25.08193646      20.77810693 
Au      26.69019847      25.06718039      24.15382967 
Au      25.97133199      23.50753564      26.36497255 
Au      25.68779759      20.04049018      27.41459730 
Ag      25.93399436      17.31562418      26.69602017 
Au      26.78553333      15.31545245      24.06613037 
Au      28.53640366      17.51933622      23.10509501 
Au      29.35334916      19.32620570      20.57950315 
Au      29.06767810      22.39617607      21.48529015 
Au      28.08210796      22.44248728      24.50391891 
Au      27.76396550      19.38483386      25.46062574 
Au      25.60769291      13.30223943      22.23002650 
Ag      26.37982520      13.33447999      19.31767545 
Au      27.19351327      15.11857195      16.99625213 
Au      27.60539883      17.93392067      15.87636348 
Au      27.66813030      20.82082527      14.93758495 
Au      27.51780004      23.64831535      15.83922594 
Au      26.86919141      25.67667573      18.07604640 
Au      25.91114964      27.56719376      20.31744302 
Au      25.15043698      27.48156009      23.29135464 
Au      24.42049541      25.93750247      25.82002513 
Ag      23.54044150      24.11301307      28.08483733 
Ag      23.45263191      21.11330984      29.06188769 
Au      23.66600321      18.13658104      28.34603925 
Au      23.69387269      15.22742223      27.41245727 
Au      24.62206908      13.46075946      25.11437392 
Au      24.31962662      11.50573367      15.40835757 
Au      24.10784797      14.79721889      14.31724514 
Au      24.18571516      17.53551012      13.36983480 
Au      24.35909155      20.34825944      12.54872924 
Au      25.60577623      23.15514282      11.44852474 
Au      24.23159859      25.13125114      13.99706183 
Au      23.30074945      26.83712479      16.15034467 
Au      22.50127902      28.51186083      18.41543496 
Au      22.56117423      30.72955034      20.80299309 
Au      21.28191380      28.61623509      23.25834565 
Au      20.36948926      26.94315332      25.44509438 
Au      19.65223836      25.15621366      27.65963830 
Au      19.51991752      23.67278440      30.55549223 
Au      19.33836771      20.49859891      29.26428902 
Au      19.46438488      17.72035291      28.41889786 
Au      19.75586552      14.96364941      27.45835508 
Au      20.61007060      11.81472493      27.20708105 
Au      21.03769667      11.93035814      23.76647266 
Au      21.78370106      11.87155447      20.96918059 
Au      22.69075569      12.00424656      18.17708233 
Au      29.71017146      14.24346654      23.51197321 
Au      31.52830929      18.22466838      18.08447203 
Au      30.96415357      24.98288104      20.08804253 
Ag      28.55667080      25.01306519      26.56158902 
Au      27.93551952      18.50003178      28.83915944 
Ag      28.86727103      27.54325576      19.15826214 
Au      30.31292322      18.62288528      14.75581666 
Au      28.02602337      11.66086640      21.67054299 
Au      25.35700367      16.51537545      30.14247207 
Au      25.90735493      26.44597805      28.37923833 
Au      26.69430402      26.80443476      15.25386817 
Au      23.34082778      28.81428230      25.68204501 
Ag      21.72644327      19.01835360      30.51364329 
Ag      23.97116827      11.02150622      23.33500356 
Au      27.13929582      15.67910974      13.75452895 
S      29.71735558      22.91928917      26.26501787 
S      29.42259264      18.46362425      27.02632463 
S      30.70116541      16.34820062      23.18562600 
S      31.75603010      19.46589291      20.06233767 
S      31.16856044      23.57798965      21.95701320 
S      27.82523667      27.21462986      27.22360351 
S      30.91738782      26.51464269      18.31385330 
S      31.51125327      17.04315914      16.04815805 
S      28.89948759      12.05610076      23.83808347 
S      26.60383674      18.42134630      30.78383642 
S      28.10395720      26.51623613      22.77608042 
S      29.90605621      22.08015902      17.13629624 
S      29.08902882      15.03252216      19.41549080 
S      26.92938557      15.01560763      26.49267847 
S      26.07111377      22.23970967      28.48942515 
S      24.08774199      25.87322803      29.75532951 
S      27.40134995      29.39870991      19.74481250 
S      29.32856450      20.16166320      13.27558933 
S      27.33518782      11.03646918      19.51582711 
S      24.17529602      14.53211175      29.71555275 
S      22.72026397      21.06296437      31.42219614 
S      25.02451655      29.72180226      24.28515976 
S      28.29772148      25.35510720      14.29476744 
S      27.99538913      13.88903122      15.04798776 
S      24.58085677      11.09535026      25.72366049 
S      20.43740785      16.94224719      30.51396236 
S      21.57282220      28.25454041      27.13832592 
S      25.13233729      28.45426479      15.88292896 
S      26.31128681      17.22194113      12.17667416 
S      23.31841984       9.99380641      21.21673771 
S      20.37595089      10.26485278      25.45738668 
S      20.69643836      13.31388013      29.01758271 
S      18.51661627      21.67139810      31.27083284 
S      20.37790309      25.77135279      29.92432808 
S      21.23035866      31.02024636      22.71592701 
S      23.81657979      30.55068401      18.82068185 
S      24.84285154      25.36969893      11.62052263 
S      26.31254090      20.92922356      11.16478557 
S      24.25237347      12.55338802      13.30777638 
S      24.34021778      10.33532265      17.44703959 
C      31.39844598      23.19873760      25.59055370 
C      30.75168630      19.66928143      27.39175456 
C      31.64760950      16.77184735      24.69466366 
C      32.79440705      18.50565825      21.22447613 
C      32.64899619      22.52480287      21.73171088 
C      28.94750843      27.78307012      28.56682527 
C      32.24405002      27.73643646      18.67910126 
C      33.22886544      17.16010803      15.40277579 
C      30.39480656      10.98722646      23.89316481 
C      27.71932060      17.79441759      32.10539520 
C      29.79203309      26.45205492      23.48334377 
C      31.64978674      22.17490202      17.68922805 
C      30.86811681      14.90742059      19.84192431 
C      28.69824575      14.87882167      26.95722632 
C      27.69774990      22.30221118      29.33534798 
C      24.81689535      24.88845366      31.12473164 
C      27.97160020      30.03611342      21.36787191 
C      30.46822777      21.60106903      13.28267020 
C      28.85659539      11.17703686      18.49397822 
C      25.46065312      13.24162564      29.49703768 
C      24.08224998      20.57657450      32.55081905 
C      26.47276235      30.08968025      25.34191355 
C      29.95464824      25.96194097      14.77782606 
C      29.82037185      13.93575308      14.91592729 
C      26.27421000      10.42341545      25.91073433 
C      19.12009186      17.24319977      31.75879196 
C      20.60380277      29.81072219      27.24901587 
C      24.74833741      29.29188880      14.29413159 
C      25.85370256      16.16295515      10.74737959 
C      22.23180623       8.59751951      21.71207571 
C      21.61922811       8.94539049      25.73344156 
C      19.35817662      12.80017753      30.15914012 
C      19.36079486      21.17327404      32.82006425 
C      19.21835231      27.00970960      30.61803649 
C      22.19684857      32.04463185      23.88982820 
C      23.20017734      31.88253623      17.72232376 
C      26.29714061      26.45679879      11.36319113 
C      25.95421162      20.50146461       9.41945785 
C      25.87407690      12.23403898      12.51291367 
C      23.46938401       8.75172071      17.14822664 
Au      19.01299693      20.20881713      19.97906195 
Au      16.10115663      20.19472249      19.05685606 
Ag      21.18018540      20.97330187      18.17684580 
Au      20.91690888      18.16662898      19.01985074 
Au      19.74642751      23.51268620      17.74987905 
Au      20.47746496      21.79687559      15.49345202 
Au      20.21544019      18.99801586      16.28318338 
Au      20.00163089      16.15056495      17.12326017 
Au      19.05927842      16.11306551      19.93610472 
Au      18.17235370      16.11406778      22.77033064 
Au      17.84424163      18.87243608      23.66793423 
Au      17.62779217      21.69058050      24.56017820 
Au      18.29743596      23.45709713      22.30568120 
Au      19.04185709      25.19233846      20.05483523 
Au      17.52768527      22.70337198      19.54325147 
Au      18.24648293      21.01092826      17.24203955 
Au      18.00928279      18.19325442      18.07956971 
Au      17.08773581      18.13678402      20.89396786 
Au      16.80247974      20.93801185      21.80906412 
Au      20.05708812      13.98540697      21.86936537 
Au      19.11392745      14.04704587      24.69346527 
Au      18.77412907      16.85781144      25.61162816 
Au      18.58957076      19.67917545      26.51588152 
Au      18.28463712      22.56958692      27.35316253 
Au      18.95036430      24.33176462      25.07913226 
Au      19.76144165      26.07090101      22.77940344 
Au      15.59013754      22.46628184      26.48447672 
Au      16.13794448      24.25322687      24.21147404 
Au      16.87068154      25.94860402      21.96117885 
Au      17.70286728      27.76570926      19.67630055 
Au      18.30545177      26.07616296      17.31341940 
Au      19.06332988      24.39220451      15.06291328 
Au      19.89090206      22.66463049      12.76514111 
Au      19.50970663      19.80463451      13.48218276 
Au      19.31923901      17.04151475      14.37240084 
Au      19.14728124      14.11730682      15.24108842 
Au      18.10731479      14.05792611      18.03595596 
Au      17.21276538      14.06771955      20.83862759 
Au      16.40422935      14.04031900      23.77107934 
Ag      15.96368628      16.81484484      24.68373375 
Au      15.76205200      19.56863782      25.51856166 
Au      17.23322255      19.02471901      15.26248495 
Au      17.13790498      16.22350154      16.18945435 
Au      16.06833190      16.09845073      18.96802840 
Au      15.30828731      16.08183195      21.85353185 
Au      14.85735458      18.87821043      22.73611257 
Au      14.71475999      21.65820801      23.66638368 
Au      15.26515529      23.45697587      21.39274502 
Au      16.12845485      25.20845952      19.21350683 
Au      16.71824577      23.56292387      16.79618964 
Au      17.57610019      21.88680189      14.55008753 
Au      14.58372615      22.80100208      18.60928415 
Au      15.35825603      21.02715317      16.25393112 
Au      15.09900944      18.12989244      17.09906374 
Au      14.17740482      18.07808177      19.99337202 
Au      13.86840048      20.97028418      20.92283710 
Au      13.20282273      20.20883352      18.11988785 
Au      13.25691251      15.12920698      19.51057690 
Au      12.36496396      17.31957663      22.29198454 
Au      12.04139251      19.95127434      23.17003255 
Ag      12.37873934      23.26719336      22.19195539 
Au      13.05989961      25.07366321      20.12913935 
Au      14.10353372      25.04343431      16.59542197 
Au      14.82334970      23.53448469      14.36726783 
Ag      15.19672777      20.15225131      13.39790519 
Au      15.02027598      17.40946228      14.10540814 
Au      14.05896125      15.26619531      16.85763140 
Au      12.36282893      17.49474331      17.82741547 
Au      11.56792560      19.31766925      20.27062791 
Au      11.85965951      22.38140875      19.42046847 
Au      12.82577573      22.39000717      16.32237103 
Au      13.14062609      19.38211461      15.38584935 
Au      15.38957308      13.31384655      18.63184647 
Ag      14.58350781      13.30538797      21.61044296 
Au      13.74672531      15.12865333      23.95240329 
Au      13.31235296      17.97212964      24.98558780 
Au      13.25287490      20.83140415      25.96982721 
Au      13.37485529      23.65814391      25.05826630 
Au      14.01438757      25.61055179      22.83841896 
Au      14.95680399      27.48258146      20.52070655 
Au      15.72845864      27.43353017      17.59255822 
Au      16.47739581      25.88113478      15.09741085 
Au      17.43341392      24.13633651      12.75124161 
Au      17.54172285      21.23611234      11.84497849 
Au      17.27794852      18.28289000      12.46890978 
Au      17.22993546      15.37790583      13.46859700 
Au      16.34202685      13.59001838      15.74923865 
Au      16.55302579      11.51896219      25.46785231 
Au      16.91921298      14.79569858      26.58542544 
Au      16.72650233      17.52924019      27.49054200 
Au      16.51608028      20.35688229      28.28273359 
Au      15.35992930      23.26933523      29.40657893 
Ag      16.71452656      25.13887281      26.91519241 
Au      17.60324540      26.82265089      24.72273157 
Au      18.39796508      28.49328581      22.43099107 
Au      18.32025093      30.72071713      20.00341810 
Ag      19.59093899      28.64558573      17.62944917 
Au      20.53089295      26.95619601      15.45918545 
Au      21.32158228      25.19028397      13.21386654 
Ag      21.55149855      23.70465088      10.47578794 
Au      21.51694789      20.54736582      11.54976118 
Au      21.49242607      17.78648935      12.45124048 
Au      21.25767446      15.00776780      13.40454873 
Au      20.40390580      11.85880752      13.68231917 
Au      19.85916000      11.96326714      17.10605718 
Au      19.11332858      11.93971633      19.90295833 
Au      18.23495160      12.00950519      22.70868987 
Au      11.11177746      14.24972246      17.37410630 
Au       9.43344488      18.23542388      22.83802688 
Au      10.00709948      24.95025507      20.89431834 
Au      12.07129294      25.04976330      14.14574797 
Au      12.92274505      18.48752349      12.02709096 
Ag      12.05857920      27.52041350      21.80406204 
Au      10.64442064      18.58110814      26.18533910 
Ag      12.86634771      11.96274108      19.30948485 
Au      15.58268769      16.52632491      10.73937589 
Ag      14.96080333      26.12662798      12.60139389 
Au      14.21864534      26.77776907      25.69516575 
Au      17.51855958      28.79261224      15.19950073 
Au      19.17416299      18.96147611      10.10737968 
Au      16.80529673      10.84250483      17.50546151 
Ag      13.97650736      15.78339476      26.97052249 
S      11.11492951      22.96949966      14.66203254 
S      11.43928000      18.51890479      13.84191536 
S      10.18142616      16.38093346      17.70210361 
S       9.18347121      19.47856677      20.86202025 
S       9.77382801      23.58384302      19.00225873 
S      12.89789439      27.12827049      13.44101357 
S      10.06097780      26.44272794      22.70135583 
S       9.45046883      17.02680156      24.85974438 
S      11.84475586      12.03931274      17.09463878 
S      14.23600002      18.35355284      10.07818011 
S      12.76658802      26.45910239      18.07663081 
S      10.96766785      22.04859574      23.86467861 
S      11.80542502      15.06037530      21.50144945 
S      13.98885810      15.16392417      14.40939590 
S      14.62613543      22.30266100      12.23937107 
S      16.81087017      25.75935501      11.06054910 
S      13.54582829      29.34246690      21.17956968 
S      11.64361731      20.11394447      27.66111756 
S      13.44517016      11.11504787      21.49821167 
S      16.85461689      14.59954543      11.18934926 
S      18.13440074      20.99586711       9.48846969 
S      15.77824220      29.63913476      16.56130107 
S      12.63732082      25.32032810      26.67892081 
S      12.96095563      13.84090182      25.85112779 
S      16.26504508      11.21129199      15.22895256 
S      20.39904177      16.96858056      10.40751075 
S      19.35033169      28.31184904      13.80096704 
S      15.78214412      28.42353087      25.06373386 
S      14.70977192      17.19018699      28.82192568 
S      17.46118037      10.13523059      19.65629208 
S      20.56482849      10.30001825      15.43294622 
S      20.32798359      13.34061069      11.85574073 
S      22.46453674      21.65924159       9.58175453 
S      20.65655623      25.89646392      10.97775874 
S      19.60904140      31.11663671      18.08153133 
S      17.07210350      30.50896954      21.99447288 
S      16.11008741      25.49271946      29.32463105 
S      14.61273456      21.04879948      29.66628654 
S      16.65692197      12.54828448      27.57733277 
S      16.56599762      10.35223021      23.42355381 
C       9.46862599      23.24989311      15.41193567 
C      10.10925147      19.72426992      13.48060975 
C       9.24986593      16.84587247      16.19618820 
C       8.10115363      18.53118497      19.72883402 
C       8.28900621      22.53761557      19.22922973 
C      11.93463070      27.55615534      11.93270845 
C       8.69215790      27.63302849      22.38981938 
C       7.73128811      17.14162866      25.50207097 
C      10.33760880      10.99498682      17.25006038 
C      13.11958244      17.64562480       8.79956429 
C      11.05919129      26.52081328      17.41909539 
C       9.20825020      22.13743192      23.35313639 
C      10.03128011      14.99913763      21.04967738 
C      12.23933401      15.02662263      13.88564697 
C      12.90202380      22.22365768      11.62024834 
C      16.13616549      24.71380705       9.71163596 
C      12.93909721      29.99263384      19.57403323 
C      10.47486311      21.52899953      27.70378160 
C      11.96051240      11.37973318      22.54796961 
C      15.61533383      13.26568518      11.42270407 
C      16.68212056      20.59587765       8.45011156 
C      14.31690595      29.88538767      15.48755866 
C      10.97117113      25.95087769      26.26114133 
C      11.14298770      13.95119131      26.03882867 
C      14.54497373      10.64530221      14.96506722 
C      21.71857015      17.09756326       9.13625229 
C      20.28062044      29.89526922      13.75986854 
C      16.18872211      29.25291520      26.65161758 
C      15.22702948      15.99137168      30.11478255 
C      18.48402339       8.64709291      19.32006786 
C      19.27686698       9.03247642      15.11844115 
C      21.64591007      12.79222823      10.70655637 
C      21.53190953      21.28245923       8.04687500 
C      21.86715949      27.13166912      10.37043234 
C      18.56043012      32.12010220      16.95804849 
C      17.66391531      31.85366813      23.09029598 
C      14.63560654      26.54869769      29.60676444 
C      14.97424040      20.58831037      31.40208557 
C      15.04618514      12.26131091      28.40453543 
C      17.43354232       8.77478540      23.76963151 
H      31.84699765      22.21861961      25.38589595 
H      31.99254267      23.71977319      26.35015240 
H      31.37657691      23.78121200      24.66392086 
H      31.44065223      19.65517805      26.53792408 
H      31.27903093      19.34163136      28.29448528 
H      30.35435606      20.68184694      27.51694490 
H      32.08358854      17.76565158      24.53281468 
H      32.44947911      16.03566478      24.82059235 
H      31.00915952      16.79817483      25.58317523 
H      33.79439233      18.40220749      20.78837404 
H      32.36537894      17.52277108      21.44121801 
H      32.85743256      19.08456798      22.15444245 
H      33.53179429      23.17379573      21.71061951 
H      32.59370594      21.92414582      20.81915000 
H      32.70455886      21.85684061      22.60033659 
H      29.90927657      28.04752656      28.11147788 
H      29.10022716      27.00598692      29.32087957 
H      28.50837092      28.67081099      29.03643838 
H      32.13544358      28.56479850      17.96882014 
H      33.21770658      27.25445237      18.53508980 
H      32.16959504      28.11937932      19.70059787 
H      33.23259261      16.75717513      14.38323418 
H      33.87342179      16.54928845      16.04541855 
H      33.58387169      18.19418458      15.39519117 
H      30.06013664       9.94327155      23.90221158 
H      30.93622899      11.21020801      24.81983166 
H      31.04485608      11.16127918      23.03142916 
H      28.44057409      18.58491848      32.34306826 
H      28.24732222      16.89122032      31.78784415 
H      27.10471354      17.57737512      32.98691432 
H      30.48902769      26.86802406      22.74509512 
H      30.08397026      25.42537877      23.72089042 
H      29.78914217      27.06423048      24.39392340 
H      32.23608334      21.47472913      17.08163772 
H      31.74217797      21.90956920      18.74568532 
H      31.99385959      23.20416325      17.53171896 
H      31.43490995      14.91300749      18.90339235 
H      31.02412198      13.96490220      20.38077717 
H      31.17776606      15.74703717      20.47076457 
H      29.08234381      13.92242941      26.58324706 
H      28.75605906      14.91034526      28.05239179 
H      29.28039753      15.70494634      26.54007089 
H      27.84373122      23.32039266      29.71634292 
H      28.50229834      22.04651084      28.63860615 
H      27.67093661      21.58418895      30.16337736 
H      23.97730102      24.45604297      31.68365553 
H      25.39830659      25.54911765      31.77691754 
H      25.44641262      24.07676129      30.74502810 
H      28.84438559      30.67705827      21.19666216 
H      28.23208434      29.21629904      22.04683846 
H      27.15623761      30.62582326      21.80466552 
H      31.39037010      21.32141561      12.76107501 
H      30.68678031      21.92655137      14.30566260 
H      29.96182160      22.40996097      12.74133299 
H      28.54526601      11.05130504      17.44927722 
H      29.55587752      10.38019049      18.76942514 
H      29.32944159      12.15804266      18.61304099 
H      24.94667118      12.34370276      29.13121348 
H      25.92655555      13.03943890      30.46773337 
H      26.21095921      13.55371319      28.76207834 
H      24.64209340      21.48227904      32.81419965 
H      24.76120940      19.85876155      32.07928885 
H      23.65319029      20.13944595      33.45977615 
H      27.29971543      30.36033890      24.67401231 
H      26.76059007      29.22751041      25.95324429 
H      26.22378805      30.94292010      25.98338446 
H      30.15558763      26.88927123      14.22899401 
H      30.68003267      25.19391211      14.48310348 
H      30.02810690      26.13925270      15.85523394 
H      30.10099428      13.64766798      13.89628730 
H      30.21549231      13.20092544      15.62805704 
H      30.21961759      14.92689574      15.15251415 
H      26.21675903       9.32964676      25.85795919 
H      26.65613048      10.72325218      26.89398015 
H      26.94721144      10.79897701      25.13372450 
H      18.37250201      16.44568993      31.67026085 
H      18.63684297      18.21303097      31.60162707 
H      19.57453835      17.20934499      32.75619048 
H      19.67602922      29.58254087      27.78806219 
H      20.36300261      30.19993521      26.25462530 
H      21.18815947      30.54654506      27.81355647 
H      25.62877404      29.86351271      13.97842021 
H      23.91023770      29.97544630      14.47826894 
H      24.46762320      28.56938763      13.52115269 
H      25.31784442      16.79520043      10.02863203 
H      25.20820896      15.33492306      11.05729027 
H      26.77157562      15.77746120      10.28857079 
H      21.72938470       8.21528381      20.81532484 
H      21.47999191       8.91724663      22.44106911 
H      22.85950904       7.80873948      22.14372271 
H      21.62281227       8.29446830      24.85129619 
H      21.30206023       8.37105117      26.61175280 
H      22.61786718       9.36519590      25.89294232 
H      19.69115496      11.90673761      30.70028597 
H      18.43062885      12.58859757      29.61595580 
H      19.20696157      13.62520915      30.86595557 
H      19.00028080      20.17489668      33.09440920 
H      19.07691805      21.89219504      33.59743713 
H      20.44872007      21.15867569      32.69072587 
H      19.45539710      27.97271050      30.14969873 
H      19.39477435      27.07490240      31.69814475 
H      18.17600743      26.73536200      30.42075921 
H      22.21465150      33.06846606      23.49815254 
H      23.21575203      31.66360911      24.00832870 
H      21.68140729      32.02870716      24.85735770 
H      23.58624696      31.67848158      16.71621920 
H      23.60426958      32.83606100      18.08227162 
H      22.10499432      31.91650756      17.71040059 
H      26.57431175      26.39793338      10.30422784 
H      27.13839334      26.15508213      11.99446992 
H      25.99928819      27.48274734      11.60983946 
H      26.67443980      21.02515417       8.78017378 
H      24.92996895      20.77944147       9.14593336 
H      26.09461500      19.41825896       9.31832997 
H      25.94736852      12.87314958      11.62513716 
H      25.89391383      11.18012091      12.21171736 
H      26.70247225      12.45237366      13.19371137 
H      24.14573273       8.08318053      16.60283487 
H      22.54773879       8.90591236      16.57683030 
H      23.24172451       8.32474415      18.13266735 
H       8.83317249      23.74913388      14.67178304 
H       9.52940768      23.84517096      16.32802044 
H       9.05022763      22.26398042      15.65027981 
H       9.57106500      19.38829738      12.58726893 
H      10.49939525      20.73679821      13.33847039 
H       9.42963646      19.71792778      14.34209071 
H       8.42815523      16.13276967      16.06505073 
H       9.88811719      16.86120741      15.30742475 
H       8.84178336      17.85015816      16.36562810 
H       8.00482011      19.11973353      18.80777597 
H       7.11734317      18.42378863      20.19936286 
H       8.52076266      17.55023002      19.48597643 
H       8.21125739      21.89127012      18.34603705 
H       7.41261722      23.19329357      19.28279254 
H       8.35850759      21.91472396      20.12607249 
H      12.41046349      28.43072660      11.47315341 
H      10.90997348      27.80864344      12.22831404 
H      11.91868233      26.73027953      11.21624745 
H       7.73608070      27.12298694      22.55354273 
H       8.72848337      28.03163667      21.37225746 
H       8.79866050      28.45415606      23.10875974 
H       7.08588374      16.54661600      24.84563600 
H       7.38138690      18.17712442      25.52864774 
H       7.72184186      16.71854196      26.51337089 
H       9.71074085      11.14535295      16.36381243 
H       9.76799130      11.24036598      18.15067482 
H      10.66313237       9.94886188      17.29663981 
H      13.72631243      17.41457932       7.91620750 
H      12.37067019      18.40509374       8.54684059 
H      12.62466505      16.73904210       9.15812361 
H      11.08716508      27.07481630      16.47294206 
H      10.43174663      27.04300755      18.15181201 
H      10.66452019      25.51566029      17.25001503 
H       8.85171115      23.14982238      23.57834776 
H       8.63854756      21.39503741      23.92494980 
H       9.09768090      21.93821521      22.28368005 
H       9.84002426      14.04489182      20.54369126 
H       9.76681565      15.82623546      20.38512326 
H       9.45215737      15.06423344      21.97865800 
H      12.20329540      15.12885613      12.79413332 
H      11.62717547      15.80591119      14.34709616 
H      11.87775121      14.03749834      14.19173394 
H      12.90906083      21.60961350      10.71155629 
H      12.56208538      23.24052124      11.38930944 
H      12.23439270      21.77614082      12.36126209 
H      15.56737455      25.35733988       9.03030945 
H      15.49255703      23.92164937      10.11201962 
H      16.98150075      24.26259951       9.17765198 
H      13.74941687      30.57452332      19.11770373 
H      12.07867046      30.64297239      19.77022277 
H      12.65248949      29.17834221      18.89878627 
H      10.97625368      22.33744731      28.25047717 
H       9.56919039      21.22168433      28.23848956 
H      10.23120292      21.86603125      26.69003607 
H      11.21297102      10.61536204      22.30782921 
H      11.53733386      12.37977398      22.40003526 
H      12.27190558      11.27803300      23.59510059 
H      15.16895396      13.02725164      10.45085166 
H      14.84341304      13.56564929      12.14006927 
H      16.15646499      12.39368038      11.81089588 
H      17.03986261      20.22064973       7.48442098 
H      16.12427744      21.52844366       8.30054636 
H      16.03518376      19.85452415       8.92982120 
H      14.50778937      30.74756656      14.83812844 
H      13.46488802      30.09963958      16.14420636 
H      14.09811087      28.99969339      14.88313276 
H      10.24955928      25.18370164      26.56726484 
H      10.86412119      26.14528631      25.18926478 
H      10.79695478      26.87019389      26.83205874 
H      10.68021234      13.29004246      25.29639773 
H      10.77896097      14.97216431      25.89042412 
H      10.88495669      13.60656477      27.04739632 
H      14.25181789      10.96054611      13.95623326 
H      13.85562096      11.07713329      15.69774787 
H      14.52736388       9.55118525      15.02867748 
H      21.26334876      16.97803575       8.14627579 
H      22.43035498      16.28267608       9.31707074 
H      22.23866370      18.05885666       9.20134878 
H      19.69440314      30.62798009      13.19319083 
H      21.22965475      29.70300681      13.24447388 
H      20.48023221      30.26917926      14.76962477 
H      17.03215352      29.92813440      26.46201770 
H      16.46667010      28.52644909      27.42233025 
H      15.31624601      29.83257616      26.97473620 
H      14.32618226      15.54063523      30.54806162 
H      15.77275106      16.53838038      30.89306127 
H      15.87288986      15.21091143      29.69900057 
H      17.82903006       7.84635666      18.95781109 
H      18.94648707       8.34645158      20.26838095 
H      19.26653186       8.86011574      18.58482323 
H      19.61423293       8.41976096      14.27424522 
H      18.30898575       9.49097154      14.89423829 
H      19.19065264       8.40838186      16.01567607 
H      21.78498800      13.59114553       9.96804407 
H      21.30507052      11.88112146      10.20092705 
H      22.58285493      12.59930932      11.24043005 
H      21.92385712      21.93457117       7.25707454 
H      20.45851386      21.45119668       8.17613645 
H      21.70491663      20.23429431       7.77629871 
H      21.71200475      27.25343018       9.29154418 
H      22.89769650      26.81391234      10.56313134 
H      21.66529160      28.08361741      10.87602840 
H      19.06604937      32.17479246      15.98655962 
H      18.46973818      33.12726879      17.38030112 
H      17.56984325      31.67343971      16.82856108 
H      17.25888541      32.80200347      22.71790156 
H      18.75837861      31.89450295      23.11538036 
H      17.26678089      31.65473320      24.09315800 
H      14.92518879      27.58791665      29.41025672 
H      14.33325173      26.44590094      30.65505286 
H      13.81004788      26.26825421      28.94541715 
H      14.85211024      19.50072627      31.47584177 
H      14.24371039      21.08699812      32.04981230 
H      15.99154440      20.87854699      31.68636834 
H      14.98675360      11.19581787      28.65561914 
H      14.20973133      12.54681882      27.75831787 
H      15.02895081      12.85665678      29.32501374 
H      17.66946461       8.31562569      22.80190756 
H      16.74952150       8.12353956      24.32645091 
H      18.35024589       8.94046870      24.34606702 
