646
Properties=species:S:1:pos:R:3 i=94 optimized=T E=-9963.7594761253 pbc="F F F" jobid=246_80-Ag-39_8-000009-PBE
Au      21.86870034      20.19635126      20.89252043 
Au      24.73740566      20.22630690      21.82087859 
Au      20.41965388      22.71695052      20.42658128 
Au      19.70266896      20.97906381      22.71417188 
Au      19.96578969      18.15772025      21.81576030 
Ag      21.13271755      23.52049879      23.15561807 
Au      20.34733062      21.76990406      25.42488052 
Ag      20.69147105      18.96832182      24.59779345 
Au      20.90686612      16.19192370      23.66286331 
Ag      21.88273291      16.13071420      20.92250065 
Au      22.75527755      16.15406280      18.09274989 
Ag      23.03272285      18.91319243      17.22752336 
Au      23.25470903      21.72402543      16.32874184 
Au      22.62390730      23.48702589      18.59570670 
Au      21.78974069      25.24046477      20.83571194 
Au      23.35198169      22.72182516      21.34671559 
Au      22.59554032      20.99377317      23.63746739 
Ag      22.88984909      18.17268408      22.77486126 
Au      23.77997210      18.15029588      19.97159420 
Ag      24.05997185      20.94824103      19.09867925 
Ag      20.90918413      14.05307599      18.99496838 
Au      21.77637662      14.04535995      16.18718413 
Au      22.12640695      16.85173097      15.26376211 
Au      22.34287492      19.70713173      14.41294304 
Ag      22.70907153      22.61457438      13.52298542 
Ag      21.98215152      24.32826028      15.83805659 
Ag      21.15151437      26.09735026      18.12838729 
Ag      20.42550455      27.86824645      20.42644528 
Au      25.39406112      22.53158052      14.49272751 
Au      24.81508392      24.30071286      16.74993825 
Ag      23.98118781      26.01256857      18.95214668 
Au      23.12550534      27.76374988      21.20858662 
Au      22.52597998      26.06201251      23.61793773 
Ag      21.75876882      24.35618766      25.83392750 
Au      20.94255205      22.53005547      28.13789517 
Ag      21.36345861      19.74466070      27.40918103 
Ag      21.57315969      17.01905892      26.46304251 
Au      21.81449378      14.12239447      25.50874188 
Ag      22.88283078      14.05234719      22.81366130 
Au      23.73781215      14.09584954      19.99716347 
Ag      24.51254070      14.03438488      17.09019126 
Ag      24.93397362      16.80776955      16.21459174 
Au      25.11989164      19.58221204      15.41099281 
Au      23.57578392      18.98600271      25.58971061 
Au      23.73778484      16.18695235      24.67545777 
Au      24.83056275      16.04723110      21.88998877 
Ag      25.57679527      16.09710665      19.01812255 
Au      26.01786280      18.88084453      18.16289905 
Au      26.13768723      21.66017468      17.25423620 
Au      25.57329653      23.51946305      19.48666234 
Au      24.72234711      25.21825328      21.69731862 
Au      24.07066866      23.57408631      24.08092656 
Au      23.17762363      21.82316650      26.31712770 
Ag      26.26492359      22.77605218      22.25854873 
Au      25.48798715      21.03939119      24.59818515 
Au      25.72679146      18.14176384      23.71604822 
Au      26.67355213      18.12343656      20.91523521 
Au      26.99943373      20.98861478      19.98735542 
Ag      27.58501406      20.23240069      22.72605520 
Ag      27.59298371      15.27048400      21.25816362 
Au      28.41755463      17.27367024      18.66398271 
Ag      28.74929869      19.93533536      17.72015652 
Au      28.47025443      23.36108963      18.87754798 
Au      27.82084451      25.05879326      20.93831288 
Ag      26.68140057      24.99257971      24.15877228 
Au      25.91674078      23.44916631      26.39822372 
Au      25.64992200      20.00420339      27.44287402 
Au      25.87709723      17.33643032      26.68174487 
Ag      26.69867844      15.35987663      23.96442154 
Ag      28.48634633      17.54078471      23.09422469 
Ag      29.26521179      19.31703556      20.59925197 
Ag      29.05106472      22.34854250      21.56588490 
Au      28.03117184      22.36705490      24.56125775 
Au      27.72513532      19.37337223      25.42482236 
Ag      25.57683111      13.28532104      22.17479146 
Ag      26.38719181      13.35577846      19.21983887 
Au      27.15388971      15.10797062      16.92557478 
Au      27.55865562      17.93982331      15.91677031 
Au      27.63037897      20.81343435      14.96757883 
Ag      27.66720593      23.67090116      15.97373245 
Ag      26.85481236      25.71396867      18.17484883 
Au      25.91769797      27.45903382      20.46472264 
Au      25.09412012      27.45861959      23.31506015 
Au      24.40494141      25.86300015      25.79856615 
Au      23.41668962      24.00168990      28.08202602 
Ag      23.39574306      21.12316277      29.04460313 
Ag      23.61574149      18.15287406      28.34910101 
Au      23.63604691      15.32613229      27.37725148 
Ag      24.65561923      13.54699583      25.11632302 
Au      24.33969309      11.51369014      15.39555525 
Au      23.97875713      14.80048030      14.30615513 
Au      24.22129875      17.52547797      13.43141482 
Au      24.46564267      20.37057975      12.68657607 
Au      25.56045221      23.24314391      11.54691465 
Au      24.19595838      25.15931746      14.08829686 
Au      23.30210386      26.87193553      16.21303303 
Au      22.50552668      28.54469827      18.45187295 
Au      22.48730034      30.71488442      20.94345043 
Ag      21.22389585      28.60440930      23.30750334 
Au      20.30190186      26.87209121      25.46307111 
Au      19.55014393      25.10134521      27.65969363 
Au      19.43252314      23.48921772      30.57239607 
Ag      19.18800612      20.45500612      29.22260082 
Au      19.40587671      17.71367650      28.31891242 
Au      19.70159000      14.95353158      27.38133086 
Au      20.59070632      11.79427114      27.03175781 
Ag      21.05063337      11.96599831      23.72104079 
Au      21.82354097      12.02751857      20.93445052 
Au      22.69338361      12.04508313      18.12482944 
Au      29.61340043      14.42273227      23.39791333 
Au      31.36318900      18.38193176      18.14016444 
Au      30.84813588      24.94094804      20.13240085 
Ag      28.52986313      24.93170326      26.58829148 
Ag      27.90508823      18.41984978      28.60123933 
Ag      28.88542184      27.58913236      19.11471111 
Au      30.24107809      18.65071098      14.82906421 
Au      28.03273016      11.77646829      21.63345832 
Au      25.39490542      16.58425817      30.14794712 
Au      25.90452170      26.39653339      28.32053020 
Au      26.77720573      26.69130618      15.33151316 
Au      23.28319354      28.72492916      25.75161018 
Ag      21.63772136      19.03577362      30.50253416 
Au      24.06158982      10.91229845      23.43122512 
Ag      26.93180521      15.75934314      13.91160233 
S      29.73834308      22.87508247      26.27379459 
S      29.50247660      18.36935364      26.78163874 
S      30.72941865      16.44256949      22.97517137 
S      31.66910391      19.72681991      20.03656164 
S      31.15211207      23.63539739      22.05580909 
S      27.84760531      27.16063077      27.21374283 
S      30.77986942      26.35844383      18.25106361 
S      31.34226679      17.05770917      16.18455677 
S      28.74578675      12.26864587      23.83777634 
S      26.79802232      18.38256419      30.75826267 
S      28.09923369      26.58927048      22.85919630 
S      29.75403044      22.18613957      17.15242417 
S      29.16672548      15.00063385      19.28647429 
S      26.78187721      15.03140000      26.45136002 
S      26.14077503      22.15121836      28.52751092 
S      24.03249100      25.79964235      29.61909109 
S      27.26848161      29.29626739      19.63164362 
S      29.32363631      20.20275510      13.32183702 
S      27.40470206      11.08272107      19.48569300 
S      24.01158399      14.72901688      29.72276125 
S      22.72664838      20.99991554      31.41632205 
S      24.94077810      29.66216387      24.35202859 
S      28.32758952      25.30926629      14.21234807 
S      27.93337937      13.79919588      15.00422179 
S      24.57614422      11.13339813      25.72605815 
S      20.33126412      16.99380440      30.47035477 
S      21.51288386      28.14172014      27.19124438 
S      25.31810328      28.33272304      16.18802092 
S      26.23012225      17.20264903      12.07364605 
S      23.48972789      10.24161957      21.24338158 
S      20.32422260      10.18765543      25.33787695 
S      20.73668009      13.28428382      28.85472054 
S      18.41990321      21.52734616      31.37502063 
S      20.34775933      25.57434559      29.96259589 
S      21.13170151      31.06001677      22.82830401 
S      23.82705972      30.57696605      19.01005337 
S      24.73627971      25.43946342      11.68748293 
S      26.37060535      21.05056915      11.28654980 
S      24.18611427      12.55818890      13.29794627 
S      24.42607368      10.38450654      17.45437921 
C      31.41250116      23.21577131      25.61155312 
C      30.86422997      19.55134241      27.10521002 
C      31.76116108      16.77905893      24.45281813 
C      32.80921514      18.80122770      21.13524800 
C      32.69020925      22.67322999      21.80078848 
C      28.96305571      27.69734508      28.57561628 
C      32.19926237      27.51411019      18.45028343 
C      33.07741673      17.09951033      15.57380985 
C      30.22948201      11.20086808      24.05596863 
C      27.95265082      17.64743819      31.98854306 
C      29.80247045      26.58621884      23.54109207 
C      31.54899240      22.47237956      17.41379711 
C      30.96858899      14.94554156      19.63211005 
C      28.51214122      14.81510916      27.02746364 
C      27.82042224      22.06862566      29.25948565 
C      24.72124332      24.85099163      31.03191798 
C      27.84911935      30.05755819      21.19900011 
C      30.46422859      21.63980649      13.34544728 
C      28.92909816      11.25049585      18.47408353 
C      25.17940054      13.32076629      29.56934099 
C      24.09157295      20.40249896      32.48836614 
C      26.39831633      30.02762021      25.39586850 
C      29.98899759      26.01096379      14.54734408 
C      29.75294245      13.93368076      14.82978348 
C      26.24427521      10.40507656      25.94793436 
C      19.00195687      17.30530982      31.70041862 
C      20.55119121      29.69808889      27.35470648 
C      25.02104252      29.43258092      14.74707131 
C      25.70857613      16.02587861      10.76243809 
C      22.48362632       8.73032870      21.52685146 
C      21.56113384       8.87187835      25.66543304 
C      19.47144218      12.72949266      30.05803875 
C      19.32304298      21.09212429      32.91310892 
C      19.25651019      26.82920719      30.73408245 
C      22.11749826      32.09063700      23.98454162 
C      23.30234140      31.97808622      17.95103954 
C      26.16229223      26.56280131      11.42497272 
C      26.03799737      20.55803423       9.55467262 
C      25.77568812      12.27042760      12.42914816 
C      23.64361071       8.75372674      17.16064542 
Au      18.97533307      20.19818784      19.95037300 
Ag      16.11929651      20.19177916      19.03717189 
Ag      21.16814661      20.98146729      18.15379702 
Ag      20.89817460      18.18927850      19.02843118 
Au      19.78098773      23.51983402      17.72480524 
Ag      20.50811798      21.77938813      15.44971741 
Ag      20.19195598      18.98289274      16.26346943 
Au      19.97971234      16.21847413      17.14751062 
Ag      19.02869541      16.14040239      19.94380943 
Ag      18.11371234      16.11529608      22.77001627 
Au      17.82394149      18.87395387      23.63907137 
Au      17.57610990      21.73510711      24.52202897 
Au      18.28505374      23.50132325      22.28946981 
Ag      19.01588432      25.22388465      20.01033997 
Au      17.52648519      22.70653773      19.50858834 
Ag      18.27018858      21.01647794      17.24128347 
Au      17.99682464      18.21116017      18.08860718 
Ag      17.08299760      18.16051151      20.87356303 
Ag      16.80739094      20.94784283      21.77031020 
Au      20.03222655      14.03970757      21.86311829 
Au      19.05706388      14.05462831      24.64872805 
Au      18.74301068      16.89106007      25.57609317 
Ag      18.52409379      19.71988528      26.46815393 
Ag      18.19102750      22.55388653      27.36114366 
Ag      18.89572201      24.31288736      25.03927255 
Au      19.71777877      26.11696353      22.75596088 
Au      15.50581774      22.54581027      26.36054051 
Au      16.05316764      24.31151699      24.12348600 
Au      16.88117457      26.00601505      21.89354901 
Au      17.71560699      27.75538169      19.61644703 
Au      18.37243180      26.10347416      17.27334047 
Au      19.14616194      24.36030546      15.05691546 
Au      19.96811433      22.68498901      12.77998619 
Au      19.55266299      19.79521246      13.48769941 
Ag      19.29955483      17.01807010      14.33253999 
Ag      19.10705285      14.18765983      15.27022246 
Au      18.13648357      14.08627887      18.07315477 
Au      17.19238427      14.10276120      20.88315544 
Ag      16.32249746      14.06371001      23.75096571 
Ag      15.89702890      16.82107466      24.64395982 
Au      15.72765661      19.63245568      25.44178874 
Au      17.27729412      19.03950659      15.33279067 
Au      17.16424363      16.24369753      16.17886897 
Au      16.06335888      16.13534676      18.98628477 
Ag      15.32758399      16.08783485      21.83352667 
Ag      14.91596701      18.87998395      22.73747996 
Ag      14.73759391      21.69580325      23.62877271 
Au      15.32370474      23.48433834      21.34943781 
Au      16.11600484      25.22723694      19.14438859 
Ag      16.82747476      23.59435315      16.78088024 
Au      17.63334315      21.85953519      14.55887892 
Au      14.69314737      22.75372955      18.57461571 
Ag      15.40685330      21.03959264      16.23250316 
Ag      15.09454043      18.15191911      17.06787162 
Ag      14.22911429      18.12737352      19.98156438 
Ag      13.93770910      20.96714257      20.90844849 
Au      13.30160435      20.19858193      18.12010755 
Ag      13.32661873      15.19969017      19.53395191 
Au      12.46402567      17.40098383      22.25676961 
Au      12.17291314      19.98552536      23.13852721 
Au      12.53470055      23.33289758      22.04346937 
Ag      13.11013926      25.09157916      19.90335837 
Ag      14.18144321      25.06148159      16.68825174 
Ag      14.96925500      23.49905340      14.40408263 
Au      15.13910934      20.09397151      13.43930506 
Au      14.91313233      17.44751220      14.15243145 
Au      14.13358132      15.34722500      16.88550878 
Au      12.37933190      17.54859186      17.84595025 
Au      11.58243482      19.41925919      20.24524357 
Au      11.91544236      22.38814457      19.29741248 
Au      12.91838034      22.44506676      16.37846006 
Ag      13.04471090      19.40952616      15.39302097 
Au      15.39414611      13.32627381      18.64534211 
Ag      14.60239485      13.25611094      21.56243429 
Ag      13.60603343      15.18459339      23.89020439 
Ag      13.28112065      18.03432308      24.99932183 
Au      13.25138354      20.85105688      25.98040097 
Ag      13.25344167      23.78265004      24.88547947 
Ag      14.05341259      25.72841971      22.63875636 
Au      14.94939205      27.52197949      20.42683641 
Au      15.75071410      27.45073081      17.50973367 
Au      16.49161380      25.86274021      15.08317796 
Au      17.46494800      24.11626088      12.78461528 
Au      17.61403147      21.23109367      11.81984355 
Au      17.29354282      18.26680143      12.57111278 
Ag      17.09688142      15.40197432      13.47206969 
Au      16.37986081      13.61801327      15.75161715 
Au      16.55346710      11.62382190      25.51055982 
Ag      16.89302936      14.81777233      26.53760146 
Au      16.67109524      17.58928906      27.40502973 
Au      16.40871778      20.40997433      28.20243175 
Au      15.34664925      23.36012840      29.29730395 
Ag      16.71764000      25.14232079      26.83151198 
Au      17.59215380      26.87861895      24.65022311 
Au      18.32858546      28.55059773      22.34709031 
Ag      18.48704714      30.66649583      20.06360329 
Au      19.64087173      28.64698580      17.61542368 
Au      20.62098744      26.92201972      15.44666389 
Ag      21.33639864      25.23275851      13.17884027 
Ag      21.57232951      23.67329697      10.45967937 
Au      21.62957683      20.57846925      11.66315397 
Au      21.49002113      17.73675968      12.51117746 
Ag      21.17151286      14.93548665      13.38514190 
Ag      20.48490894      11.88425761      13.94386737 
Ag      19.83561457      11.96204234      17.13220078 
Au      19.12811133      12.03213233      19.98515266 
Ag      18.19319665      12.02872142      22.75994577 
Au      11.23132035      14.20716495      17.48767362 
Ag       9.66499955      18.29880568      22.82493977 
Au      10.14914101      24.99861201      20.86503776 
Au      12.28908205      25.01533862      14.12734215 
Ag      12.80759358      18.50146600      12.27523654 
Ag      12.05983911      27.67127303      21.73237145 
Au      10.56864950      18.65484735      26.10487386 
Ag      12.91171299      11.88496922      19.29382588 
Ag      15.43680496      16.63506330      10.99370036 
Ag      15.08854322      26.14189494      12.52627882 
Ag      14.28838936      26.53929510      25.63718957 
Au      17.59343041      28.75284630      15.15782742 
Ag      19.23995213      18.96600264      10.42503769 
Au      16.92516893      10.85856714      17.52522146 
Ag      13.97224386      15.74937374      26.91634049 
S      11.31946683      22.93071644      14.59343924 
S      11.14963624      18.50804922      14.02280950 
S      10.25267655      16.28893111      17.94418327 
S       9.19030507      19.59397853      20.84981756 
S       9.85948515      23.70579797      18.92993692 
S      13.08310937      27.12726553      13.48192188 
S      10.25995449      26.41012239      22.74352825 
S       9.57424840      16.94053296      24.82670420 
S      11.99528195      12.03146819      17.04538763 
S      13.96242984      18.36855820      10.16560899 
S      12.74286671      26.66903325      17.96978021 
S      11.14805290      22.15857149      23.72765450 
S      11.95587737      15.07575333      21.62781455 
S      13.99346226      15.16750209      14.43520837 
S      14.67662798      22.17168613      12.25640367 
S      16.89395297      25.65006788      10.98990875 
S      13.57853858      29.42159885      21.08157779 
S      11.44040678      20.29512828      27.54300921 
S      13.41041108      11.08590658      21.51073941 
S      16.76083088      14.62301490      11.15681726 
S      18.13711489      20.95467250       9.46901070 
S      15.89041601      29.68133585      16.51649200 
S      12.56693700      25.24776802      26.76885073 
S      13.01016515      13.79071568      25.85191581 
S      16.40099052      11.23309872      15.24851364 
S      20.60233540      16.93264787      10.39524030 
S      19.33028312      28.11372929      13.70796833 
S      15.75582745      28.40587130      25.15767333 
S      14.65606204      17.21108538      28.73634965 
S      17.58675871      10.14689166      19.67512232 
S      20.65118983      10.16197761      15.61677228 
S      20.14776734      13.19463957      11.95446267 
S      22.52682500      21.61314210       9.63589174 
S      20.66536368      25.86184250      10.84256143 
S      19.78592531      31.05865109      18.07320622 
S      17.05552143      30.60816722      22.00892613 
S      16.11702145      25.58062185      29.24221218 
S      14.50249337      21.17836133      29.58224509 
S      16.65865135      12.58530456      27.65517200 
S      16.43479494      10.41511517      23.49648796 
C       9.66602690      23.25350784      15.31385088 
C       9.86141413      19.74241073      13.59828847 
C       9.19289756      16.69663630      16.50547775 
C       8.13390765      18.61731352      19.71636470 
C       8.35435036      22.68841036      19.15998483 
C      12.05440796      27.59231555      12.02738764 
C       8.80227832      27.52810227      22.60876659 
C       7.82848756      16.90517713      25.40951329 
C      10.48882535      10.97406693      17.10054817 
C      12.83685918      17.48787421       9.00282049 
C      11.05623048      26.72770182      17.24570824 
C       9.37521120      22.29918126      23.28015837 
C      10.13964161      14.89625698      21.40907324 
C      12.23749014      15.05117316      13.92314008 
C      13.00835059      22.04940579      11.50114706 
C      16.20818610      24.54975206       9.69150921 
C      12.95717646      30.06892041      19.48081648 
C      10.30114162      21.72580270      27.40152869 
C      11.91537065      11.35978158      22.54169722 
C      15.54206400      13.26531710      11.38440579 
C      16.65279836      20.41522930       8.54186216 
C      14.44433539      29.99998766      15.44074103 
C      10.96592135      26.08667774      26.44532579 
C      11.20394341      13.80933695      26.18161226 
C      14.71030025      10.59508835      14.95591782 
C      21.94057818      17.28629963       9.18705170 
C      20.29028747      29.66034269      13.46599916 
C      16.15865397      29.08886198      26.81519158 
C      15.16992705      16.03255454      30.05015524 
C      18.68606637       8.71534040      19.33446481 
C      19.37677472       8.91309595      15.17378603 
C      21.44330916      12.66752354      10.76383126 
C      21.57307305      21.17507992       8.12927610 
C      21.86518289      27.04668654      10.11812560 
C      18.73544062      32.03661200      16.92894630 
C      17.60993751      31.88022480      23.20387219 
C      14.63187032      26.61738907      29.54465135 
C      14.80618881      20.73727047      31.33440048 
C      15.05407680      12.21542773      28.46486722 
C      17.22196982       8.79967266      23.87313457 
H      31.89222972      22.25189334      25.40023237 
H      31.98659054      23.74678246      26.37947608 
H      31.37542975      23.80614789      24.69032330 
H      31.51899949      19.56454984      26.22508149 
H      31.42923499      19.19592091      27.97466226 
H      30.48310357      20.56252114      27.28478667 
H      32.28549515      17.72452938      24.26496170 
H      32.49498329      15.97444899      24.56962476 
H      31.14689776      16.87940422      25.35422818 
H      33.78804511      18.72184694      20.64970959 
H      32.41942967      17.80624587      21.37292025 
H      32.90754336      19.38325212      22.06015582 
H      33.53538133      23.36652874      21.72841528 
H      32.63201881      22.04670108      20.90502003 
H      32.82019141      22.03330861      22.68271396 
H      29.93572438      27.94369851      28.13340245 
H      29.09000532      26.91255183      29.32643309 
H      28.53638634      28.59127777      29.04478260 
H      32.09739220      28.30238910      17.69499239 
H      33.12805939      26.95841718      18.27792482 
H      32.21865434      27.96121275      19.44800786 
H      33.09317093      16.65107484      14.57358130 
H      33.68982573      16.49987397      16.25725871 
H      33.46232512      18.12192877      15.52987835 
H      29.88977124      10.15929955      24.09717210 
H      30.70564090      11.47294918      25.00511561 
H      30.93823469      11.32910780      23.23322132 
H      28.71455245      18.40135654      32.21974499 
H      28.43586069      16.74610036      31.60149857 
H      27.39016606      17.40494860      32.89746085 
H      30.48922785      26.98217516      22.78342709 
H      30.11809742      25.57705847      23.82113443 
H      29.79693757      27.23501525      24.42568813 
H      32.09160073      21.88962300      16.65964349 
H      31.84282282      22.13943516      18.41451458 
H      31.75434206      23.54198081      17.29532202 
H      31.50161740      15.08043131      18.68383013 
H      31.19849942      13.96227319      20.06054652 
H      31.25713835      15.72695199      20.34149136 
H      28.85241869      13.82868518      26.69109533 
H      28.52332287      14.86502257      28.12288452 
H      29.16172904      15.59387474      26.61552163 
H      28.06914101      23.06510437      29.64495997 
H      28.56106107      21.76915076      28.51127183 
H      27.79145345      21.34166587      30.08034336 
H      23.87089179      24.39585305      31.55511793 
H      25.24598220      25.54524203      31.69774683 
H      25.39851177      24.06234740      30.68705417 
H      28.68750391      30.72484574      20.96796761 
H      28.16018222      29.29100688      21.91865015 
H      27.01633415      30.63643476      21.61681466 
H      31.39761680      21.35701464      12.84598325 
H      30.65953346      21.97282978      14.37016225 
H      29.96923552      22.44562264      12.78893218 
H      28.62654912      11.09869567      17.43020525 
H      29.64921447      10.47966467      18.76847111 
H      29.36758996      12.24953836      18.57803167 
H      24.59094691      12.45705290      29.23540380 
H      25.61787280      13.11723545      30.55262212 
H      25.96139236      13.53782512      28.83328050 
H      24.68262681      21.27571457      32.78973037 
H      24.74260320      19.69313914      31.96663016 
H      23.66387177      19.92847429      33.37892084 
H      27.21838141      30.30001352      24.72034257 
H      26.69318022      29.16429916      26.00190318 
H      26.15358883      30.87884978      26.04159671 
H      30.08091560      26.97844937      14.04156141 
H      30.72229546      25.31017346      14.12942993 
H      30.17033223      26.12836568      15.62099603 
H      30.02490111      13.63302591      13.81104826 
H      30.21754225      13.24994767      15.55033108 
H      30.10255392      14.95250809      15.02356386 
H      26.20347693       9.33038762      25.73958521 
H      26.52348946      10.56391442      26.99690005 
H      26.98102418      10.88992753      25.29874840 
H      18.25256174      16.51114458      31.59906897 
H      18.52545292      18.27875049      31.53981978 
H      19.44317366      17.26609873      32.70341681 
H      19.61797513      29.45263405      27.87656010 
H      20.32081999      30.13109629      26.37594996 
H      21.13539651      30.40637150      27.95358176 
H      25.94183252      29.98724902      14.53288332 
H      24.22358159      30.13132173      15.02860146 
H      24.71167244      28.86025092      13.86691008 
H      25.18674493      16.59043249       9.98035121 
H      25.03986144      15.25580459      11.16102453 
H      26.60562196      15.55855947      10.33900131 
H      22.04400876       8.44564192      20.56305161 
H      21.68584823       8.91391874      22.25428046 
H      23.14415467       7.93152808      21.88320586 
H      21.56494399       8.19393723      24.80354329 
H      21.24882691       8.32152556      26.56014560 
H      22.56184113       9.29238578      25.80890459 
H      19.84491539      11.82733091      30.55658724 
H      18.51650809      12.52012808      29.56267179 
H      19.35323115      13.53574202      30.79215920 
H      18.97338415      20.10473106      33.23737247 
H      19.07617882      21.83511801      33.67971308 
H      20.40529282      21.06660467      32.74455601 
H      19.54716730      27.80454236      30.32487184 
H      19.43073835      26.82029768      31.81634173 
H      18.20115863      26.62650136      30.51917031 
H      22.20886525      33.09664879      23.56000482 
H      23.10856484      31.65926005      24.15624746 
H      21.56993377      32.14178322      24.93326461 
H      23.80935530      31.86218892      16.98518888 
H      23.62909991      32.91162090      18.42356588 
H      22.21527077      31.98463120      17.81027379 
H      26.45088662      26.49661274      10.36951195 
H      27.00544123      26.29420511      12.06987979 
H      25.82954859      27.58265685      11.65182438 
H      26.75269933      21.07629526       8.90487830 
H      25.01031531      20.80172329       9.26234833 
H      26.20430857      19.47507551       9.49906752 
H      25.76807269      12.86613200      11.50884164 
H      25.82974171      11.20514609      12.17621142 
H      26.62698416      12.55747606      13.05545251 
H      24.32709115       8.14490154      16.55760605 
H      22.67959236       8.86353864      16.64990537 
H      23.50515567       8.28451062      18.14240728 
H       9.04832736      23.74824352      14.55598892 
H       9.72864770      23.86683458      16.21790074 
H       9.23043977      22.27846824      15.56484929 
H       9.31731768      19.39817226      12.71150849 
H      10.29496900      20.72969355      13.40891208 
H       9.16530661      19.81125774      14.44349391 
H       8.43272827      15.91481217      16.40014828 
H       9.77813814      16.79789644      15.58569667 
H       8.70752628      17.65513330      16.72752518 
H       8.04995854      19.16733738      18.77091337 
H       7.14048407      18.51819129      20.16905385 
H       8.55991781      17.62754693      19.52196174 
H       8.20990647      22.11870492      18.23335553 
H       7.50092171      23.35751123      19.31567086 
H       8.45858506      21.98983567      19.99719731 
H      12.50731074      28.48259887      11.57499932 
H      11.04205569      27.83092167      12.37265727 
H      12.01314796      26.78758766      11.28815456 
H       7.89802501      26.95145666      22.83443531 
H       8.72065606      27.96595732      21.61012884 
H       8.92446346      28.32485078      23.35208474 
H       7.27360690      16.22298560      24.75452286 
H       7.37200398      17.89816868      25.37534696 
H       7.80925889      16.52363920      26.43676942 
H       9.88498037      11.17274369      16.20783845 
H       9.89474897      11.16545148      17.99844119 
H      10.81825651       9.92821353      17.09514008 
H      13.40943007      17.20731733       8.11100593 
H      12.03004779      18.17213695       8.71533879 
H      12.40606673      16.58977586       9.45445345 
H      11.12614794      27.18386387      16.25105272 
H      10.42144701      27.34060660      17.89696835 
H      10.62426643      25.72630275      17.16478017 
H       9.08881478      23.35216303      23.38754384 
H       8.79993548      21.67195051      23.97227823 
H       9.20643156      21.96568224      22.25197890 
H       9.94857379      13.89060098      21.01511153 
H       9.76764297      15.64244678      20.69949682 
H       9.66122316      15.02230019      22.38696468 
H      12.19678660      15.10426886      12.82826409 
H      11.64415609      15.86449929      14.35106991 
H      11.85836381      14.08306118      14.27254950 
H      13.05400569      21.31020162      10.69225604 
H      12.74908088      23.03708620      11.10050637 
H      12.26054384      21.75139025      12.24240055 
H      15.66802829      25.17075744       8.96752543 
H      15.53919193      23.79586422      10.12141533 
H      17.04947786      24.04497023       9.20038140 
H      13.76351619      30.65650421      19.02488861 
H      12.09409582      30.71404113      19.68100762 
H      12.67686932      29.24889996      18.80842389 
H      10.78136067      22.56376801      27.92263588 
H       9.35310906      21.47159279      27.88827588 
H      10.13831019      22.00003240      26.35386757 
H      11.15223219      10.62098627      22.27292248 
H      11.51920753      12.37290821      22.41739731 
H      12.21171057      11.22266662      23.58922747 
H      15.02631431      13.08340714      10.43484045 
H      14.81278940      13.50611979      12.16657424 
H      16.09995439      12.36708817      11.67684967 
H      16.98412683      20.01167377       7.57763774 
H      16.01709346      21.29259840       8.37313548 
H      16.08128257      19.65576280       9.08557542 
H      14.67410149      30.85545288      14.79523801 
H      13.60065835      30.24687158      16.09671518 
H      14.18939922      29.12499671      14.83445955 
H      10.16820368      25.44512557      26.83923456 
H      10.80071330      26.24650721      25.37465938 
H      10.95053555      27.04742498      26.97221796 
H      10.74592244      13.02324240      25.56900578 
H      10.75435525      14.77442603      25.92429589 
H      11.03307550      13.58910587      27.24144219 
H      14.42818532      10.88893067      13.93744825 
H      13.99050679      11.00840452      15.66985456 
H      14.73576870       9.50187392      15.03046805 
H      21.50515055      17.26772078       8.18073854 
H      22.69770729      16.49761376       9.27149509 
H      22.40455094      18.26024299       9.37586668 
H      19.68598166      30.35715776      12.87379109 
H      21.19901694      29.39484698      12.91197639 
H      20.56325517      30.11434183      14.42381732 
H      16.97537474      29.81077699      26.69590198 
H      16.46632952      28.30110693      27.51163866 
H      15.26992482      29.60232196      27.20106972 
H      14.26662963      15.59857451      30.49521550 
H      15.72201830      16.59233241      30.81457657 
H      15.80708077      15.23655200      29.64964894 
H      18.07064753       7.88488259      18.96945761 
H      19.16107190       8.43453279      20.28233925 
H      19.45514800       8.96964423      18.59680863 
H      19.74855732       8.33334753      14.32111567 
H      18.42391863       9.38624674      14.91706572 
H      19.22920074       8.24541768      16.03075800 
H      21.53960941      13.45777556      10.00969614 
H      21.11423139      11.73997994      10.28101917 
H      22.40668913      12.50343642      11.25869075 
H      21.91185711      21.83925481       7.32512536 
H      20.49579038      21.29240553       8.28369298 
H      21.79455711      20.13562078       7.86097757 
H      21.75619909      27.03779446       9.02740421 
H      22.89625651      26.79153985      10.38721205 
H      21.62071633      28.04697368      10.49596550 
H      19.16852282      31.98360277      15.92325535 
H      18.74755944      33.07562553      17.27944731 
H      17.70836553      31.66050474      16.90201204 
H      17.19054803      32.84371735      22.88992239 
H      18.70294921      31.94379256      23.24258940 
H      17.21055658      31.61054413      24.18894914 
H      14.91708835      27.66436609      29.38713049 
H      14.32054308      26.47778051      30.58590622 
H      13.81525681      26.34818849      28.86520273 
H      14.62466313      19.65951549      31.42733305 
H      14.09154727      21.28681497      31.95814823 
H      15.83258242      20.97694664      31.63448954 
H      15.00851967      11.13921022      28.66582663 
H      14.21385178      12.52027710      27.83106789 
H      15.02413926      12.76506421      29.41331042 
H      17.38370624       8.29330233      22.91368235 
H      16.53238680       8.20751200      24.48533855 
H      18.17540046       8.92782661      24.39724394 
