646
Properties=species:S:1:pos:R:3 i=95 optimized=T E=-10243.3467281794 pbc="F F F" jobid=246_80-Ag-69_9-000004-PBE
Ag      21.84735609      20.19615390      20.88209664 
Ag      24.69505599      20.19922282      21.76829555 
Ag      20.45714668      22.68977428      20.44287692 
Ag      19.71418941      20.97485985      22.73477416 
Au      20.00071019      18.16604161      21.84815416 
Au      21.13617293      23.49330833      23.16947957 
Ag      20.37843060      21.77041998      25.44503747 
Au      20.69409788      18.96031377      24.60868078 
Ag      20.94766372      16.14832728      23.72453011 
Ag      21.84391567      16.10644206      20.93791594 
Au      22.69679788      16.11669776      18.07466091 
Au      23.03464416      18.91750343      17.20693705 
Ag      23.27945380      21.73371347      16.29991252 
Au      22.57873483      23.46801142      18.56438957 
Ag      21.85435889      25.22481636      20.89283873 
Au      23.32066345      22.70088944      21.32762400 
Ag      22.60333200      20.99646400      23.63137264 
Au      22.86019444      18.18274920      22.76634925 
Ag      23.72058144      18.16954992      19.95443369 
Ag      24.02005774      20.97603771      19.05828190 
Ag      20.86894991      14.02069990      19.02275911 
Ag      21.77052609      14.04424064      16.20107277 
Ag      22.08498307      16.85066982      15.29055938 
Au      22.33871406      19.70801281      14.36056309 
Ag      22.62965674      22.56652440      13.54452226 
Ag      21.92430496      24.31686578      15.81363737 
Au      21.13680728      26.10768994      18.10552188 
Au      20.46426540      27.77339422      20.44445497 
Ag      25.36066536      22.50526572      14.45925557 
Ag      24.74848584      24.25881628      16.69309024 
Au      23.95536385      25.97174508      18.97683914 
Ag      23.20351578      27.79270908      21.31814298 
Au      22.58803850      26.10530871      23.63977160 
Ag      21.77639757      24.31189993      25.84344669 
Ag      21.01303288      22.57215889      28.15866419 
Au      21.41737563      19.79212102      27.40982129 
Ag      21.61663854      16.95050582      26.49001981 
Ag      21.84092037      14.13967354      25.59374217 
Ag      22.83567285      14.01941095      22.84524824 
Au      23.67570152      14.09012776      20.01242790 
Ag      24.54037645      14.04314258      17.07517482 
Ag      24.90904542      16.80990860      16.19659303 
Ag      25.10750350      19.65931975      15.36409731 
Ag      23.57771169      18.98433952      25.57422760 
Ag      23.72416026      16.17694085      24.65462698 
Ag      24.74001727      16.08294461      21.86793474 
Au      25.51462019      16.11775952      18.98980017 
Ag      25.91303468      18.89250978      18.09046909 
Ag      26.08389147      21.67819954      17.19477650 
Au      25.53779819      23.49423860      19.46149524 
Au      24.69975592      25.24510783      21.71642492 
Au      24.07850820      23.50292216      24.08282117 
Ag      23.21924866      21.82432543      26.32013031 
Ag      26.19070256      22.73551474      22.22392731 
Ag      25.44861331      21.01047961      24.55751644 
Ag      25.64768399      18.17942804      23.66301698 
Ag      26.58571441      18.15240778      20.84254093 
Ag      26.89742172      20.96250299      19.94684506 
Ag      27.52349041      20.20791640      22.67320740 
Ag      27.48262559      15.34857976      21.21363809 
Ag      28.33330445      17.38499724      18.65368021 
Ag      28.60494775      20.01209106      17.69421885 
Au      28.30973845      23.31352337      18.79834288 
Ag      27.68321075      25.05513217      20.88432017 
Ag      26.63590885      24.85800218      24.17219605 
Ag      25.86537769      23.31365559      26.42991060 
Ag      25.67459167      20.06891645      27.33057318 
Ag      25.80054439      17.34351038      26.59498264 
Ag      26.65381755      15.43606018      23.91470599 
Ag      28.44744274      17.52849783      22.96494352 
Ag      29.23128251      19.40021868      20.55803267 
Ag      28.94185877      22.36687286      21.51085002 
Ag      28.00413631      22.31184482      24.53322513 
Au      27.64607505      19.29948638      25.33635491 
Ag      25.53598910      13.34736985      22.18048200 
Ag      26.32205864      13.37186044      19.28236668 
Ag      27.27150479      15.18037546      16.96559326 
Ag      27.49204263      17.99971186      15.89746627 
Ag      27.66323773      20.81636288      14.95467542 
Ag      27.55651196      23.72738555      15.95509096 
Ag      26.76476146      25.73459934      18.09435712 
Au      25.88876886      27.47602705      20.38694973 
Ag      25.26344525      27.43576342      23.44419296 
Au      24.39844637      25.77275536      25.84145716 
Au      23.40535080      24.05135468      28.11473220 
Ag      23.48286001      21.16175146      29.06919537 
Ag      23.62002064      18.22131616      28.30152723 
Ag      23.73853330      15.33916816      27.41526870 
Ag      24.68014159      13.53289763      25.06692280 
Au      24.27544700      11.56678661      15.38017656 
Au      23.91926306      14.85668277      14.31662050 
Ag      24.16254772      17.62174226      13.46760307 
Ag      24.43011648      20.40410820      12.61457834 
Au      25.43469543      23.30038930      11.56900551 
Ag      24.09640489      25.11829916      14.02817712 
Ag      23.26192858      26.78327302      16.26700420 
Ag      22.59642081      28.53353789      18.56019380 
Au      22.54360238      30.70007251      20.92235733 
Ag      21.19320019      28.59076895      23.22864602 
Ag      20.36453150      26.85676728      25.45226455 
Ag      19.65334256      25.12306347      27.70343689 
Ag      19.35178578      23.57839281      30.46967645 
Au      19.23675300      20.51309763      29.21038178 
Au      19.45182936      17.70347543      28.32497203 
Ag      19.71941733      14.90168975      27.50572565 
Ag      20.40918688      11.86580459      27.00417095 
Au      20.94777539      12.01558075      23.76921435 
Ag      21.87336176      11.97691251      20.99017948 
Au      22.68038734      12.05664482      18.19019216 
Ag      29.44776983      14.46930763      23.28230051 
Ag      31.14214124      18.48179249      18.19242102 
Au      30.65828288      24.95259719      20.19997428 
Ag      28.45579805      24.85553496      26.59467240 
Au      27.92554187      18.32754121      28.62388606 
Ag      28.83236838      27.58255564      19.14273286 
Ag      30.18324264      18.79770802      15.00855512 
Au      27.96802033      11.77368967      21.72401456 
Ag      25.37291345      16.47502987      29.86959626 
Au      25.92616372      26.39874118      28.29100407 
Au      26.48554957      26.75251099      15.19732262 
Ag      23.17179156      28.50714488      25.56709012 
Ag      21.65508334      19.02972479      30.44831841 
Ag      23.83450445      11.03905281      23.33925509 
Ag      26.79271156      15.85752668      13.88679588 
S      29.59625452      22.75298668      26.41572930 
S      29.37442941      18.21297405      26.77589504 
S      30.71316615      16.45764147      22.79505019 
S      31.62727766      19.92402378      20.05495297 
S      30.91480108      23.76549387      22.21189126 
S      27.79985937      27.13619158      27.05606945 
S      30.64690835      26.26542108      18.23763266 
S      31.25704548      17.04162650      16.26558212 
S      28.70038888      12.25494294      23.91904346 
S      26.65341004      18.39231233      30.60475835 
S      27.88367731      26.59030757      22.88920922 
S      29.69816129      22.23199362      17.06625323 
S      28.95989815      15.00615615      19.17074587 
S      26.67188827      14.96308277      26.37616346 
S      26.04696995      22.14901593      28.67070749 
S      24.11196048      25.83373048      29.67402295 
S      27.30478732      29.34141739      19.73692575 
S      29.43875430      20.29897116      13.29457815 
S      27.28515399      11.09022082      19.58526044 
S      24.10255454      14.45380830      29.71535275 
S      22.66201684      21.01856798      31.41662007 
S      24.85867198      29.72552991      24.28280572 
S      28.09720840      25.36422454      14.16260493 
S      27.83867990      13.91780557      14.92541050 
S      24.40092524      11.15539033      25.70287038 
S      20.50649058      16.88169794      30.38060583 
S      21.34607013      28.34149646      27.17945416 
S      25.02727559      28.49300830      15.84517756 
S      26.18716831      17.33522840      12.04220628 
S      23.33052002       9.97052799      21.21599245 
S      20.19017947      10.20995520      25.26847187 
S      20.78800650      13.18072672      28.96881063 
S      18.32585285      21.54192204      31.24428737 
S      20.46077604      25.64771686      30.00278569 
S      21.12858168      31.05596937      22.76711944 
S      23.95369941      30.57747830      19.04305334 
S      24.57507776      25.49391621      11.58417387 
S      26.43812106      21.18501006      11.35962563 
S      24.11994529      12.58608329      13.27193767 
S      24.41249053      10.46062516      17.44843658 
C      31.28710328      23.13320110      25.80828702 
C      30.74189413      19.37802735      27.13952990 
C      31.73303144      16.80826197      24.28194687 
C      32.76368297      18.99925232      21.16066944 
C      32.49045612      22.84213156      22.04434322 
C      28.97172545      27.74702520      28.33859783 
C      32.11296207      27.37138773      18.38879562 
C      33.00751782      17.07977663      15.68526397 
C      30.21036704      11.21811612      24.11438760 
C      27.76169755      17.71249850      31.91034933 
C      29.53474469      26.96176825      23.60814054 
C      31.48925081      22.51996119      17.36112576 
C      30.77222414      14.73909922      19.34882854 
C      28.34126983      14.54146971      27.02740691 
C      27.63734957      22.04393814      29.59018049 
C      24.83434130      24.87888410      31.06284046 
C      27.86813858      30.03465431      21.33928312 
C      30.52392416      21.77920948      13.37020291 
C      28.79616110      11.18704822      18.54573328 
C      25.30925747      13.09959591      29.42329486 
C      24.02123996      20.47039053      32.52329424 
C      26.19432878      30.18932057      25.45365745 
C      29.71955016      26.15662834      14.49413652 
C      29.64516664      14.00537894      14.60868288 
C      26.03931802      10.36018665      25.93633257 
C      19.17877571      17.06756072      31.63817659 
C      20.46121694      29.94653560      27.01501182 
C      24.60063363      29.28715293      14.24194859 
C      25.66130150      16.14691845      10.73827261 
C      22.19905000       8.61123460      21.72372215 
C      21.45323588       8.92739965      25.63002877 
C      19.57377579      12.62624854      30.22853207 
C      19.22071020      21.04463299      32.76858493 
C      19.43010049      27.00207353      30.68762418 
C      22.07602085      32.10110413      23.94133083 
C      23.43287881      31.96081619      17.95636747 
C      26.01716376      26.58141875      11.24833871 
C      26.25633318      20.69818582       9.60048445 
C      25.71925679      12.28310644      12.42724208 
C      23.62059902       8.82476705      17.22449376 
Ag      19.02138505      20.19835431      19.98964530 
Ag      16.17039931      20.18546317      19.06989047 
Ag      21.16230495      20.97138229      18.15241537 
Ag      20.86872660      18.15616618      19.01980306 
Ag      19.74104289      23.50115590      17.71657842 
Au      20.48862145      21.78945992      15.45737861 
Au      20.19699801      18.93756896      16.27626039 
Ag      19.91640783      16.12793136      17.15606236 
Au      19.04354090      16.06888912      19.97036020 
Ag      18.17358055      16.10397169      22.79473688 
Ag      17.87086344      18.88596527      23.68534914 
Ag      17.60468939      21.71201825      24.58176512 
Ag      18.31298324      23.44826465      22.29095167 
Au      19.07619522      25.16494420      20.02172380 
Ag      17.57503423      22.67128483      19.53988994 
Ag      18.28722191      20.97488262      17.26144156 
Au      18.01817118      18.15062120      18.09615639 
Au      17.13054625      18.13910611      20.93250330 
Ag      16.86110002      20.93622328      21.79611587 
Au      20.02647145      13.98342363      21.87689434 
Au      19.07954100      14.09983693      24.73667983 
Ag      18.78782820      16.83533036      25.60534108 
Au      18.56078507      19.69775634      26.49129395 
Ag      18.24406973      22.57641856      27.33498245 
Ag      18.96477680      24.30965778      25.06152426 
Ag      19.76614453      26.06433718      22.77752784 
Ag      15.49100392      22.46881095      26.42213720 
Au      16.17413424      24.21310852      24.17842986 
Ag      16.95570658      25.95533717      21.92449388 
Ag      17.71409060      27.72711033      19.61361729 
Ag      18.31397486      26.08527733      17.27003358 
Ag      19.09434625      24.32539036      15.04721403 
Ag      19.85451189      22.58563721      12.75676780 
Au      19.48262101      19.76882043      13.51139847 
Ag      19.24923365      16.93742486      14.41616092 
Ag      18.99076278      14.09546616      15.32488612 
Ag      18.10033546      13.99985815      18.07468989 
Ag      17.25561609      14.01665526      20.90066801 
Ag      16.38781918      14.06504322      23.74444955 
Ag      16.00415867      16.78693595      24.67742095 
Au      15.78110015      19.63197347      25.50059619 
Ag      17.29266490      18.98001893      15.34134673 
Ag      17.12342373      16.15468449      16.24421202 
Ag      16.13615729      16.08936929      19.02755534 
Ag      15.37827996      16.05897201      21.85552309 
Ag      14.96967123      18.86639816      22.77138508 
Ag      14.79352416      21.65297164      23.66924086 
Ag      15.41397228      23.45550257      21.41445191 
Au      16.22884820      25.18913048      19.18227941 
Ag      16.82887717      23.53419596      16.83214700 
Ag      17.65366676      21.84111098      14.59821388 
Ag      14.72239895      22.71741500      18.66419692 
Ag      15.40382945      21.00080659      16.33857265 
Au      15.13070744      18.16983126      17.16820380 
Au      14.27932882      18.14482672      20.05537567 
Ag      13.96337621      20.96984028      20.93135523 
Ag      13.28573577      20.22236418      18.17546195 
Au      13.31423546      15.22512833      19.63857760 
Ag      12.51234703      17.34625196      22.27861366 
Au      12.25468348      19.95279802      23.24636892 
Ag      12.56988859      23.25118059      22.06147843 
Ag      13.28046045      25.04364965      20.00062903 
Ag      14.25028384      24.87854175      16.70525585 
Au      14.99696303      23.31487118      14.52327852 
Ag      15.24193818      20.05893003      13.57168915 
Au      15.08497327      17.38795113      14.29471249 
Au      14.10575182      15.33208131      17.01442658 
Au      12.38632176      17.53264260      17.95102221 
Au      11.66265995      19.33218166      20.35399150 
Au      11.98560919      22.45624328      19.34113722 
Ag      12.84666447      22.33768238      16.36004702 
Ag      13.09795167      19.26422644      15.46717652 
Au      15.42254702      13.33967164      18.75312704 
Ag      14.61914734      13.27231853      21.61633391 
Ag      13.69660595      15.11604286      23.90839559 
Au      13.41190714      17.89588343      24.98670185 
Ag      13.22281942      20.72774299      25.97933885 
Ag      13.32807332      23.72546206      24.92015389 
Au      14.11841432      25.61850220      22.76895126 
Au      15.02129816      27.42892166      20.46130293 
Ag      15.66119033      27.39495031      17.48900268 
Ag      16.52002034      25.75827923      15.06675865 
Au      17.43066996      24.05640619      12.78954679 
Ag      17.44214220      21.11846330      11.86400418 
Au      17.32258677      18.18835606      12.56249061 
Ag      17.13427130      15.31200829      13.48688213 
Ag      16.20531836      13.49796368      15.86972221 
Ag      16.73850367      11.70433933      25.59832472 
Ag      16.87517257      14.79625915      26.57542796 
Ag      16.74658552      17.58927946      27.42185776 
Ag      16.43354733      20.39499935      28.24756403 
Au      15.52978996      23.30300301      29.31035095 
Ag      16.75794066      25.10753827      26.81897401 
Ag      17.62379049      26.79831444      24.61006215 
Au      18.37390709      28.49189941      22.36241290 
Ag      18.58792860      30.61128348      19.97221478 
Ag      19.74427643      28.60810951      17.70119384 
Ag      20.49002576      26.85837313      15.44850672 
Ag      21.23812072      25.14593692      13.18889835 
Ag      21.63351219      23.49667623      10.49584036 
Ag      21.55394065      20.46801396      11.64952730 
Ag      21.40315766      17.68143586      12.57805497 
Au      21.08783798      14.87891554      13.50920115 
Ag      20.38210178      11.82051219      13.82947158 
Au      19.93532980      11.97684564      17.13140897 
Ag      19.15060468      11.96054486      19.96297230 
Ag      18.18625274      11.98646607      22.78090595 
Ag      11.28736045      14.41321304      17.49924813 
Ag       9.69290784      18.40967647      22.79707712 
Ag      10.34383371      24.90141987      20.78051424 
Ag      12.38333420      24.77675633      14.27794389 
Ag      13.10081709      18.37465185      12.25223254 
Ag      12.08926325      27.51319629      21.89523557 
Ag      10.74215678      18.66696143      25.96698744 
Ag      12.86529431      11.92746155      19.16123750 
Au      15.61393964      16.52838009      10.78984243 
Ag      14.96222535      26.09123244      12.57811885 
Au      14.34525772      26.70109318      25.73061332 
Ag      17.75310670      28.49755667      15.35286948 
Au      19.29219166      18.95512322      10.21775807 
Ag      17.05341140      11.05769460      17.67731343 
Au      13.95471707      15.74632825      27.10075520 
S      11.19981741      22.69565358      14.51274675 
S      11.39175335      18.26251198      13.93264712 
S      10.15690824      16.49177706      17.96401268 
S       9.31345487      19.83375043      20.88993012 
S       9.96117614      23.74902526      18.70637841 
S      13.08198199      27.02663965      13.75549308 
S      10.23099345      26.23619937      22.77479995 
S       9.58343569      16.95285978      24.70527066 
S      11.95691337      12.17420557      16.93052067 
S      14.38876400      18.46671248      10.20540808 
S      12.98815135      26.58390596      17.98759024 
S      11.26066909      22.15876612      23.90047980 
S      11.96685689      14.98479261      21.69607602 
S      14.21415742      15.04561285      14.57306908 
S      14.82852574      22.13806484      12.27474853 
S      16.78644213      25.68289120      11.06270978 
S      13.62219173      29.26352584      21.24426757 
S      11.47982987      20.20022452      27.67085255 
S      13.49918787      11.07154264      21.31695924 
S      16.78607375      14.52037148      11.13512820 
S      18.32057952      21.00367363       9.52966033 
S      16.02133790      29.66856938      16.59793338 
S      12.79077703      25.27389544      26.80336784 
S      13.11751842      13.84139603      25.96860357 
S      16.45313151      11.10407096      15.30516991 
S      20.45696874      16.90860759      10.40691958 
S      19.51847814      28.29681328      13.68262671 
S      15.78757283      28.44347599      25.06754327 
S      14.62832398      17.35063074      28.70416244 
S      17.67238808       9.98811071      19.78121350 
S      20.63272746      10.17642699      15.55901268 
S      20.14184252      13.26133159      11.91488799 
S      22.68890574      21.48963604       9.69264859 
S      20.48449106      25.57116175      10.85788302 
S      19.88609837      31.07046049      17.99941470 
S      17.07884646      30.51498543      21.85459017 
S      16.40927180      25.48956134      29.27144701 
S      14.49592561      21.20964661      29.59355500 
S      16.86428938      12.62720068      27.81163908 
S      16.37299934      10.49088484      23.56076123 
C       9.51136965      23.06922223      15.12619600 
C      10.04845094      19.41672724      13.45486984 
C       9.17954934      16.98095579      16.49367641 
C       8.18049456      18.95305040      19.74864747 
C       8.43314531      22.75647570      18.91371468 
C      11.96821667      27.64028886      12.42038822 
C       8.75288250      27.31736063      22.55858971 
C       7.84023865      17.01631668      25.30172459 
C      10.43267539      11.13855775      16.94182066 
C      13.27132507      17.89505415       8.85807823 
C      11.34942571      26.89748797      17.21387557 
C       9.45135158      22.37192102      23.64199904 
C      10.16424473      14.82179663      21.36635998 
C      12.52466937      14.72248285      13.92595198 
C      13.18533062      22.02807880      11.45614640 
C      16.12762636      24.62131974       9.71891934 
C      12.98046284      29.98177189      19.68258077 
C      10.36590938      21.65841492      27.59366258 
C      12.00500151      11.21471790      22.37600412 
C      15.49124539      13.23333899      11.34002636 
C      16.97954707      20.55016861       8.36251815 
C      14.68462102      30.08904076      15.41122194 
C      11.14185740      26.02589928      26.51096864 
C      11.30132828      13.87129721      26.23034111 
C      14.80167040      10.31510521      15.15506387 
C      21.83124308      17.09666162       9.19890073 
C      20.39864751      29.90797993      13.81668509 
C      16.23164509      29.24700456      26.66097010 
C      15.08569858      16.31510436      30.15419308 
C      18.78837940       8.61905635      19.26535458 
C      19.35923417       8.88795062      15.26364210 
C      21.45160943      12.79088019      10.72104101 
C      21.82489144      21.07748302       8.12272476 
C      21.52571993      26.90233206      10.14198590 
C      18.82350753      32.07246516      16.88504439 
C      17.57878868      31.83314716      23.02582382 
C      14.97284563      26.57995250      29.62411825 
C      14.73970857      20.77740069      31.36038241 
C      15.25915716      12.24103972      28.62015768 
C      17.10280138       8.82176325      23.79268158 
H      31.79042983      22.18129674      25.59824373 
H      31.83764248      23.66638660      26.59141180 
H      31.25758731      23.73464893      24.89365207 
H      31.39816055      19.38841166      26.26049621 
H      31.29796564      19.00832924      28.00827855 
H      30.36158609      20.38874364      27.32422174 
H      32.20438965      17.78920233      24.14365780 
H      32.51265209      16.04327632      24.37007861 
H      31.12130410      16.82547284      25.18994351 
H      33.73236813      18.88418761      20.66171585 
H      32.35227867      18.01735071      21.41928930 
H      32.89608845      19.58937129      22.07589345 
H      33.31856968      23.55517731      21.96854030 
H      32.47068566      22.18011683      21.17191529 
H      32.60928876      22.24160121      22.95487225 
H      29.92581588      27.96522170      27.84419760 
H      29.12785915      27.00683792      29.12824490 
H      28.56446091      28.66809062      28.77114186 
H      32.03483273      28.13849946      17.60929267 
H      33.01790039      26.77468411      18.22685485 
H      32.15830354      27.84886686      19.37149622 
H      33.04322938      16.67489659      14.66717534 
H      33.60571224      16.44584485      16.35009768 
H      33.41424719      18.09494927      15.68800841 
H      29.90907397      10.16477400      24.14650929 
H      30.68245098      11.49334237      25.06503834 
H      30.91682661      11.37589001      23.29473328 
H      28.54015386      18.45221914      32.12933131 
H      28.22306870      16.77157636      31.59812357 
H      27.15231611      17.54440767      32.80630735 
H      30.04768538      27.67004124      22.94671984 
H      30.12882721      26.04537746      23.68909875 
H      29.38441977      27.40893679      24.59739149 
H      32.04642713      21.99640173      16.57473270 
H      31.77829217      22.12814590      18.34218549 
H      31.67742288      23.59820440      17.30991305 
H      31.25121497      14.98650503      18.39447518 
H      30.94603490      13.68671168      19.60203973 
H      31.16381241      15.37870687      20.14772480 
H      28.65728905      13.59554900      26.57292174 
H      28.27248508      14.43479890      28.11640408 
H      29.05183095      15.33787033      26.78153238 
H      27.78933005      22.99254506      30.11861890 
H      28.46505851      21.87448423      28.89340496 
H      27.56926813      21.21677958      30.30553651 
H      23.99262348      24.47415709      31.63893717 
H      25.42691715      25.55512352      31.68890190 
H      25.45066972      24.05224489      30.69279325 
H      28.73419663      30.67982312      21.15276704 
H      28.12689774      29.23805791      22.04531118 
H      27.04049628      30.62558596      21.75103926 
H      31.51927200      21.51702328      12.99493048 
H      30.59617745      22.17263308      14.39032621 
H      30.07610052      22.54372491      12.72328491 
H      28.47701683      10.99139491      17.51428584 
H      29.50923445      10.41935683      18.86461647 
H      29.25203409      12.18167252      18.59604234 
H      24.73270164      12.21017399      29.13980374 
H      25.86440690      12.90229712      30.34685120 
H      26.00052198      13.34691673      28.60995675 
H      24.56993929      21.36313667      32.84694623 
H      24.71084787      19.79365628      32.00772749 
H      23.59360451      19.96945153      33.39899337 
H      27.04147472      30.56700405      24.86847158 
H      26.52414614      29.33314822      26.05179385 
H      25.82590580      30.98299268      26.11357987 
H      29.75531270      27.13055714      13.99386052 
H      30.48764870      25.49874527      14.06901305 
H      29.89847869      26.27537228      15.56804440 
H      29.82593043      13.86850333      13.53662370 
H      30.12192362      13.18939169      15.16511491 
H      30.06807820      14.96037747      14.93933989 
H      25.94199564       9.28247970      25.76340435 
H      26.35249272      10.53564200      26.97268799 
H      26.78901699      10.78033737      25.25700998 
H      18.47246232      16.23778970      31.51532784 
H      18.64843162      18.01873053      31.52407900 
H      19.63789732      17.01341469      32.63248037 
H      19.52982945      29.88311896      27.59051430 
H      20.22478522      30.17560164      25.97003232 
H      21.09057564      30.74114437      27.43227961 
H      25.49002287      29.78355320      13.83800758 
H      23.82579347      30.03578018      14.44860158 
H      24.21768224      28.55741434      13.52067490 
H      25.18913897      16.71654886       9.92879960 
H      24.94655714      15.41350057      11.12687064 
H      26.54633655      15.63038708      10.34919735 
H      21.77453451       8.16750438      20.81506565 
H      21.38530445       8.98076129      22.35723570 
H      22.77322956       7.84961591      22.26382458 
H      21.54345462       8.27019765      24.75742859 
H      21.09788731       8.34711005      26.48960238 
H      22.42468069       9.38090975      25.85577883 
H      19.91788132      11.67632664      30.65338488 
H      18.57502264      12.50088365      29.79535754 
H      19.54851286      13.38908577      31.01605647 
H      18.94168700      20.01431811      33.01799725 
H      18.89522914      21.71473411      33.57312779 
H      20.30596505      21.11317613      32.63483452 
H      19.75248675      27.93115959      30.20196321 
H      19.61041502      27.06985898      31.76660398 
H      18.36493081      26.82979703      30.49860748 
H      22.21145669      33.09136652      23.49249498 
H      23.04713850      31.64890085      24.17160315 
H      21.48088538      32.19301998      24.85771266 
H      23.94193030      31.81586347      16.99548785 
H      23.76300842      32.90479872      18.40443396 
H      22.34677401      31.97053851      17.81003604 
H      26.32109729      26.44450245      10.20457987 
H      26.85025702      26.35138872      11.92081526 
H      25.69354112      27.61785774      11.40189364 
H      26.96032366      21.28297303       8.99793025 
H      25.23097540      20.85566643       9.24859966 
H      26.51764604      19.63411052       9.54635947 
H      25.72252930      12.87281259      11.50278102 
H      25.77771949      11.21639977      12.18259751 
H      26.56238977      12.57834927      13.06183710 
H      24.30786059       8.18278113      16.66131464 
H      22.66489486       8.91672871      16.69584897 
H      23.46663573       8.41335614      18.22976973 
H       8.96883664      23.63766173      14.36265501 
H       9.54702479      23.63446280      16.06371001 
H       8.99848131      22.11457344      15.29751335 
H       9.61422592      19.08821774      12.50427589 
H      10.41685457      20.44524763      13.37155264 
H       9.27988833      19.37361208      14.23685854 
H       8.34940450      16.27383057      16.38217296 
H       9.79796476      16.98820022      15.58953388 
H       8.78168796      17.98795223      16.66953733 
H       8.10534620      19.54135584      18.82584896 
H       7.19368457      18.88804813      20.22108811 
H       8.55632874      17.95237729      19.51037468 
H       8.31803513      22.12594389      18.02350670 
H       7.57932716      23.43957322      18.98799986 
H       8.49154531      22.12106767      19.80376107 
H      12.42293465      28.53037392      11.97032057 
H      11.00688577      27.91183060      12.87200530 
H      11.80536404      26.88389050      11.64759044 
H       7.85277200      26.71769946      22.73677283 
H       8.70966312      27.74952872      21.55493241 
H       8.80559818      28.12330076      23.29981152 
H       7.21744216      16.41936080      24.62549201 
H       7.46043683      18.04125141      25.33687531 
H       7.80505387      16.58135547      26.30739926 
H       9.85717218      11.35646111      16.03468310 
H       9.81317446      11.33602409      17.82114578 
H      10.73207776      10.08395044      16.93753547 
H      13.87766566      17.67603156       7.97164959 
H      12.57312227      18.70981456       8.63222482 
H      12.71134866      17.00242885       9.15042308 
H      11.51495219      27.30501913      16.20978359 
H      10.81299709      27.62529109      17.83428697 
H      10.77079331      25.96936037      17.15564414 
H       9.23071993      23.44349179      23.71966096 
H       8.91818123      21.81389035      24.42070207 
H       9.16488959      21.99719528      22.65330592 
H       9.97054177      13.81055396      20.98947662 
H       9.84415592      15.56234067      20.62562461 
H       9.64060540      14.98501962      22.31605504 
H      12.58873176      14.66943138      12.83244310 
H      11.84467076      15.53036168      14.21696726 
H      12.18623674      13.76525784      14.34035787 
H      13.23632635      21.22831282      10.70747364 
H      12.97859045      22.98915616      10.97024101 
H      12.40165987      21.81243382      12.19025322 
H      15.51628197      25.24021792       9.05220383 
H      15.53284606      23.79363447      10.12160088 
H      16.98560321      24.21658310       9.16783898 
H      13.78124330      30.58623085      19.23885560 
H      12.12118101      30.61866925      19.92210425 
H      12.68900387      29.19659677      18.97613044 
H      10.79867626      22.43515219      28.23642916 
H       9.37590367      21.37928361      27.97110934 
H      10.28416100      22.04723614      26.57257708 
H      11.25406449      10.48904304      22.04430699 
H      11.58770305      12.22738175      22.34784607 
H      12.30950017      10.98265784      23.40422613 
H      14.97938491      13.07521642      10.38460424 
H      14.77023842      13.50546869      12.11783598 
H      16.00796111      12.31297881      11.64013662 
H      17.42053073      20.10790812       7.46238419 
H      16.45694757      21.47734126       8.09681181 
H      16.27179592      19.85061249       8.82139849 
H      15.05174978      30.85422703      14.71807922 
H      13.84281898      30.49205912      15.98703079 
H      14.34756602      29.20942336      14.85147026 
H      10.39677378      25.32878937      26.91385348 
H      10.95276813      26.18380978      25.44325837 
H      11.08020007      26.97778160      27.04985858 
H      10.88202182      13.04299278      25.64589954 
H      10.86005064      14.81555255      25.89176121 
H      11.08803855      13.71344956      27.29323325 
H      14.46154921      10.44285259      14.12031589 
H      14.07005532      10.77079288      15.83130358 
H      14.89713202       9.24613905      15.37662369 
H      21.41784081      17.09227345       8.18404507 
H      22.49816472      16.23499698       9.32583036 
H      22.39516476      18.02013131       9.36945404 
H      19.77329548      30.68906662      13.36893936 
H      21.33711539      29.82984009      13.25484436 
H      20.61994971      30.16517000      14.85874104 
H      16.99574046      30.00296032      26.44121031 
H      16.63386124      28.52439269      27.37888001 
H      15.34394318      29.73540490      27.07817398 
H      14.17472153      15.88878444      30.58911792 
H      15.56875084      16.97323209      30.88688032 
H      15.77686557      15.51336276      29.87337432 
H      18.19320995       7.85248221      18.75569271 
H      19.23773089       8.18771025      20.16788587 
H      19.58237955       8.97433352      18.59975185 
H      19.66856072       8.30622884      14.38748351 
H      18.37363882       9.33518492      15.09356025 
H      19.32174642       8.23304276      16.14195492 
H      21.55659382      13.61299600      10.00274893 
H      21.12323321      11.88663410      10.19469873 
H      22.40580680      12.60243450      11.22505701 
H      22.16268957      21.78224293       7.35439219 
H      20.73758182      21.13807289       8.23921015 
H      22.10353625      20.05837409       7.83052454 
H      21.36485310      26.92573113       9.05798565 
H      22.58811674      26.74251389      10.35613785 
H      21.19154310      27.84951531      10.58230009 
H      19.31989708      32.14550703      15.91018677 
H      18.72484097      33.07455111      17.31758147 
H      17.83564581      31.61593589      16.76005211 
H      17.18228347      32.78475425      22.65182944 
H      18.66884202      31.89467444      23.11935220 
H      17.12495226      31.60595251      23.99789268 
H      15.29560002      27.61552372      29.46361281 
H      14.68397435      26.44469945      30.67230475 
H      14.13052065      26.34909506      28.96313782 
H      14.42391717      19.73297240      31.47360293 
H      14.09951186      21.42079025      31.97430997 
H      15.78787625      20.89088794      31.65857347 
H      15.23455849      11.16883010      28.84513140 
H      14.41584571      12.51001434      27.97541385 
H      15.20082407      12.81013108      29.55541395 
H      17.20705236       8.37505339      22.79644909 
H      16.41220871       8.22005152      24.39456510 
H      18.08026842       8.87353782      24.28451237 
