646
Properties=species:S:1:pos:R:3 i=100 optimized=T E=-9873.0698505071 pbc="F F F" jobid=246_80-Ag-30_1-000004-PBE
Au      21.91214857      20.18022480      20.93899069 
Ag      24.78820176      20.18120953      21.83257025 
Au      20.43975966      22.71874660      20.44543883 
Au      19.70977135      20.96029697      22.76024876 
Au      20.00605008      18.13545127      21.86532935 
Au      21.18756137      23.52804114      23.18935251 
Au      20.37034846      21.79331056      25.48090073 
Au      20.72544527      18.96100190      24.62536892 
Au      20.94126458      16.11428496      23.76551982 
Au      21.83823602      16.09122618      20.94513501 
Au      22.71693706      16.10112430      18.10036498 
Au      23.01351835      18.90396000      17.21929605 
Au      23.24989371      21.74989665      16.36879915 
Ag      22.56586114      23.46273027      18.60788420 
Ag      21.82341017      25.20668418      20.86528493 
Au      23.34343481      22.69431148      21.34938773 
Au      22.64248391      20.98417151      23.66422615 
Ag      22.89990071      18.15076273      22.80905354 
Au      23.77637846      18.12201668      20.00840800 
Au      24.06286463      20.93263919      19.10427636 
Au      20.86659129      13.96388391      19.02327149 
Ag      21.81891382      14.01493621      16.17052480 
Au      22.12976316      16.86951854      15.28893212 
Ag      22.35042974      19.71783143      14.40299185 
Ag      22.64895987      22.56682999      13.54728772 
Au      21.91363877      24.34064632      15.83143048 
Au      21.10730833      26.08859398      18.11486647 
Au      20.40393712      27.74958952      20.46118966 
Au      25.30748904      22.47894122      14.48309594 
Au      24.72301232      24.31926766      16.73504547 
Au      23.92227663      25.96470071      18.95666475 
Au      23.09324658      27.74896091      21.26215933 
Ag      22.55863682      26.07653643      23.63947657 
Ag      21.84418047      24.32890021      25.89005997 
Ag      21.00526769      22.58489185      28.19895988 
Au      21.37905798      19.73924745      27.42559856 
Au      21.60235544      16.95395483      26.50309768 
Ag      21.78925640      14.07494300      25.66761650 
Au      22.80404522      14.02864415      22.84744488 
Au      23.67048460      14.03863973      20.04391409 
Au      24.56430338      14.05053387      17.15919400 
Au      25.02759460      16.81343907      16.26837853 
Au      25.12176393      19.63455477      15.42635758 
Au      23.67957641      18.97422636      25.56680360 
Au      23.80676986      16.17499322      24.71151716 
Ag      24.80782707      16.04750442      21.92909350 
Au      25.57403081      16.05298129      19.07609295 
Au      26.04100680      18.84959216      18.12346670 
Au      26.15339492      21.68403004      17.27096987 
Ag      25.54347442      23.47551606      19.51929889 
Au      24.67613142      25.18552366      21.73729392 
Au      24.09501522      23.56941129      24.13519978 
Au      23.25807789      21.79699426      26.36870921 
Ag      26.23662248      22.74715132      22.25454180 
Au      25.52488346      21.01339885      24.58110229 
Au      25.77760924      18.08996567      23.75851027 
Au      26.63452947      18.08333516      20.86328789 
Au      26.98617758      20.96149928      19.97227155 
Au      27.64319828      20.17854683      22.73019371 
Ag      27.56172689      15.14561147      21.30357344 
Ag      28.44095172      17.31644646      18.64833472 
Au      28.75668241      19.94572054      17.67290264 
Au      28.45362031      23.30744299      18.79942412 
Au      27.79417216      24.99198328      20.92097737 
Ag      26.64735402      24.98873753      24.12460466 
Au      25.95257150      23.40517400      26.34944073 
Ag      25.73270170      20.10168195      27.45383475 
Au      25.95683525      17.36710711      26.75034051 
Au      26.78783610      15.24393073      24.01443079 
Au      28.46727865      17.42276301      22.95063093 
Au      29.32416377      19.34337264      20.58078280 
Au      29.02233724      22.32823964      21.52769804 
Ag      28.10440869      22.35356495      24.53571874 
Au      27.76736198      19.40195979      25.44294657 
Au      25.51433852      13.27133477      22.24681434 
Ag      26.28209635      13.25208897      19.35314214 
Ag      27.31880592      15.08018631      17.03987375 
Ag      27.61779633      17.96738980      15.85048795 
Au      27.64090494      20.86828356      14.96523262 
Au      27.47297675      23.77629615      15.95325935 
Au      26.83225863      25.65888809      18.21159306 
Au      25.85906915      27.40781922      20.41198722 
Au      25.10335294      27.43914207      23.32013617 
Ag      24.42642379      25.89012328      25.83292231 
Ag      23.59289240      23.99698775      28.12310009 
Au      23.32502020      21.16249397      29.08271922 
Au      23.66763939      18.21917808      28.32785933 
Au      23.73161761      15.30078552      27.40779987 
Au      24.56865518      13.53755836      25.11881482 
Au      24.27431813      11.58218044      15.37892400 
Au      24.11470505      14.84415196      14.37711049 
Au      24.20586808      17.61754677      13.51784644 
Ag      24.51389656      20.39306643      12.62332025 
Ag      25.40098740      23.31597380      11.62485829 
Ag      24.12086071      25.11220851      13.99918902 
Au      23.22354828      26.85541654      16.17622513 
Ag      22.50426325      28.53720730      18.50022659 
Au      22.51460205      30.70194692      20.91946046 
Ag      21.16319623      28.60356245      23.28061448 
Au      20.37525895      26.86778422      25.46798902 
Au      19.65325963      25.09773102      27.68508658 
Au      19.43570102      23.62541432      30.57303336 
Au      19.24478915      20.45186702      29.25643381 
Au      19.44518935      17.69254544      28.41654738 
Au      19.66578256      14.95805972      27.48112337 
Au      20.50763484      11.80407243      27.18747118 
Au      21.06863507      11.93832034      23.79272221 
Ag      21.83622061      11.93493895      20.97825590 
Au      22.66041235      12.00370024      18.16982628 
Au      29.65732539      14.19914479      23.40002140 
Ag      31.21057938      18.24649986      18.01877941 
Ag      30.69834708      24.81509168      20.12509517 
Ag      28.45147519      25.03212645      26.56022390 
Au      28.05738355      18.51710137      28.76017029 
Au      28.98442448      27.64191210      18.93212307 
Au      30.27892897      18.62322179      14.74392159 
Au      27.95680712      11.62362355      21.64578145 
Au      25.40480214      16.57127893      30.10436469 
Au      25.82389440      26.53949200      28.32907584 
Ag      26.46580119      26.64907985      15.37637460 
Au      23.31010295      28.79619334      25.66931522 
Ag      21.68274356      18.90363295      30.49683235 
Au      23.94186089      10.74423765      23.35239530 
Au      27.10234425      15.75285468      13.80704889 
S      29.71807872      23.01319765      26.32403480 
S      29.51898231      18.53175007      26.92250010 
S      30.64585172      16.27842467      22.95542206 
S      31.71305083      19.47708154      20.02400354 
S      31.07854341      23.52141773      22.12902126 
S      27.72278813      27.26497552      27.12749389 
S      30.83211530      26.33555982      18.24937231 
S      31.31440570      16.91703044      16.00368683 
S      28.85950553      12.02137669      23.80130529 
S      26.75257796      18.41950319      30.71853929 
S      28.06915404      26.56215667      22.81387785 
S      29.89143356      22.11519002      17.18953479 
S      28.95319549      14.92824393      19.19437725 
S      26.99710132      15.12541318      26.48079125 
S      26.14892002      22.31050147      28.57924513 
S      23.97467850      25.93757189      29.64179736 
S      27.29284626      29.16715789      19.53707681 
S      29.34663879      20.25995574      13.33635496 
S      27.22670514      10.94855987      19.52128235 
S      24.14343549      14.62116016      29.71788690 
S      22.72404385      20.93685936      31.42300739 
S      24.96880383      29.69834111      24.24882409 
S      28.19907914      25.32402211      14.23471587 
S      27.91875858      13.86302524      14.95541188 
S      24.50577241      11.16412346      25.61920410 
S      20.34589405      16.85513223      30.54861400 
S      21.55970752      28.25158835      27.14160573 
S      24.94232227      28.51477841      15.75431079 
S      26.34477360      17.40786262      12.29810017 
S      23.31787682       9.92984930      21.23095665 
S      20.32534831      10.24876950      25.43743526 
S      20.65732614      13.27842501      29.00716332 
S      18.44265124      21.61424233      31.26473134 
S      20.37172404      25.69221727      29.96460048 
S      21.13400174      31.07218295      22.78855576 
S      23.88624530      30.55286019      19.01634793 
S      24.67060917      25.61195229      11.62657131 
S      26.41169868      21.18017577      11.19319092 
S      24.16073005      12.63362252      13.27863057 
S      24.33322951      10.38139420      17.40255700 
C      31.40999786      23.41870931      25.74339550 
C      30.82344243      19.77211065      27.25056498 
C      31.63147348      16.74546704      24.42877994 
C      32.76626524      18.45621265      21.12016787 
C      32.54891354      22.44157264      21.96341914 
C      28.85829245      27.87668178      28.44093375 
C      32.28113114      27.43163624      18.54114634 
C      33.06246585      16.92936792      15.42713114 
C      30.36059803      10.95868611      23.83126310 
C      27.87505898      17.74174478      32.00800424 
C      29.77236248      26.57493111      23.49617375 
C      31.62370999      22.23711619      17.77446325 
C      30.75944137      14.60144619      19.32979212 
C      28.76766757      15.05106043      26.93873862 
C      27.79725896      22.41719872      29.38218032 
C      24.71075315      25.05290309      31.07633537 
C      27.91730657      29.98339553      21.05643720 
C      30.50162746      21.68269683      13.43781372 
C      28.71687201      11.04935544      18.45173736 
C      25.39906413      13.29674488      29.52069538 
C      24.16543763      20.45808801      32.44556954 
C      26.40577700      30.14989241      25.28828516 
C      29.82847679      26.04282661      14.66333686 
C      29.73028893      13.80076284      14.68357557 
C      26.19098759      10.50330763      25.89205605 
C      19.02927608      17.20168360      31.78192092 
C      20.57453144      29.80088130      27.21232674 
C      24.56617880      29.16118255      14.07578307 
C      25.92480362      16.43414865      10.79825339 
C      22.19664202       8.52939503      21.63306505 
C      21.57724600       8.95128974      25.77599642 
C      19.35339168      12.75946335      30.18565787 
C      19.31866787      21.10087313      32.79326510 
C      19.24253135      26.97223632      30.63245568 
C      22.11550717      32.10883714      23.94191152 
C      23.37211457      31.93195691      17.92097776 
C      26.19210491      26.61408966      11.38460309 
C      26.11198919      20.80445001       9.42218668 
C      25.75459476      12.30231404      12.43530145 
C      23.49696772       8.78514056      17.07257442 
Au      18.96990052      20.18248732      19.99201150 
Ag      16.07373809      20.14930771      19.07745516 
Ag      21.15753219      20.95954827      18.19218422 
Au      20.87354768      18.15430423      19.05030111 
Ag      19.69875445      23.48547740      17.75224377 
Au      20.49741300      21.76268407      15.49832409 
Au      20.16909749      18.94805030      16.28370257 
Au      19.96330648      16.13929612      17.14718496 
Ag      19.01428645      16.08678685      19.96397648 
Au      18.16966501      16.07835330      22.77883133 
Au      17.88332365      18.89546712      23.70777377 
Ag      17.58643538      21.72913073      24.60902737 
Au      18.31078952      23.44694463      22.35279799 
Ag      19.02330786      25.18559500      20.03749980 
Au      17.53030978      22.68443693      19.56270537 
Au      18.22203739      20.99054967      17.27768692 
Au      17.95503697      18.14910755      18.10858045 
Au      17.06396950      18.11328929      20.91936048 
Au      16.79950503      20.91489215      21.85200945 
Au      20.02458323      13.96408457      21.90699245 
Ag      19.07923778      13.99438509      24.75789253 
Ag      18.78658123      16.84293250      25.61055203 
Au      18.55237893      19.68029199      26.54918717 
Ag      18.24008360      22.54095906      27.38893716 
Au      18.94379148      24.31385679      25.10202080 
Ag      19.73700250      26.04183232      22.80398310 
Au      15.55060314      22.48099509      26.48002879 
Ag      16.12838900      24.26031167      24.19519092 
Au      16.90099867      25.90806042      21.96217143 
Au      17.70723402      27.71844133      19.64279522 
Au      18.28656738      26.04809999      17.28801694 
Au      19.01162518      24.33685465      15.07686882 
Au      19.90238080      22.59469907      12.77776456 
Au      19.59753763      19.69342746      13.47094567 
Ag      19.30257225      16.94992619      14.35028269 
Au      19.03247539      14.14787982      15.26337289 
Au      18.09186432      14.04166902      18.09094274 
Ag      17.24955057      14.01384291      20.90514420 
Au      16.38564198      14.02374477      23.76408246 
Au      16.03698988      16.83686808      24.68429390 
Au      15.80245166      19.62733502      25.54657405 
Au      17.28731724      18.96120057      15.32222776 
Ag      17.15025816      16.17929880      16.21274091 
Ag      16.10201415      16.07198099      19.01320574 
Ag      15.34045252      16.05783199      21.83706121 
Ag      14.90010146      18.85952501      22.77753547 
Au      14.70132045      21.67957516      23.69070671 
Au      15.27746267      23.42265457      21.39039464 
Au      16.13395319      25.16938367      19.21014598 
Ag      16.73616696      23.56775520      16.78093669 
Au      17.64920034      21.77306677      14.58373022 
Au      14.64957888      22.70972910      18.60872995 
Ag      15.38065717      20.98518257      16.27896765 
Ag      15.12659254      18.11648541      17.14093235 
Ag      14.16944145      18.05871406      20.01800307 
Au      13.90884468      20.88656635      20.95257478 
Ag      13.24900191      20.15412108      18.16902046 
Au      13.27927380      15.20958656      19.57165429 
Au      12.42462792      17.33193874      22.33748885 
Au      12.05482401      19.92224526      23.27529156 
Ag      12.46408389      23.19724955      22.22474021 
Ag      13.14797935      24.98497152      20.02786293 
Au      14.12002814      25.03513465      16.65059602 
Au      14.88127056      23.49162302      14.50041518 
Au      15.18962930      20.02968203      13.47728129 
Au      15.03468383      17.38560679      14.21728137 
Au      14.13153435      15.29188069      16.96966015 
Au      12.38935942      17.49791508      17.80795825 
Au      11.56966937      19.37755935      20.35613382 
Au      11.90992744      22.31342997      19.47328674 
Au      12.86283942      22.36468183      16.42854892 
Au      13.11594631      19.32068945      15.48201256 
Au      15.43200210      13.30020143      18.75398652 
Au      14.60442360      13.29691640      21.67326981 
Au      13.74760979      15.20296071      23.96797250 
Au      13.40010694      17.94988092      25.04004703 
Au      13.27469967      20.77519475      26.02212381 
Au      13.40273251      23.77035090      25.01427280 
Au      14.00454484      25.61724381      22.74418344 
Au      14.97696544      27.42022648      20.54457702 
Au      15.72122286      27.39256664      17.57273791 
Ag      16.45133068      25.89799437      15.06108867 
Ag      17.34218320      23.99430785      12.81366180 
Au      17.62089152      21.12765488      11.84047936 
Au      17.34242032      18.16230190      12.54328903 
Ag      17.16596045      15.31143262      13.44535687 
Ag      16.26281563      13.50702081      15.87623718 
Au      16.59340423      11.52706774      25.49391498 
Au      16.84312746      14.81245363      26.55902099 
Ag      16.72390961      17.57458883      27.46885386 
Ag      16.41974396      20.37591586      28.31804250 
Au      15.36986635      23.25528921      29.39314542 
Ag      16.76387589      25.08530564      26.91527011 
Au      17.59404571      26.79621222      24.73344687 
Au      18.31730422      28.44626827      22.40713423 
Au      18.39471550      30.69877743      19.97740904 
Ag      19.59579482      28.60796312      17.63145920 
Au      20.45726468      26.91769430      15.43263842 
Au      21.21143523      25.14444971      13.23509979 
Au      21.49521454      23.66217192      10.37652855 
Au      21.66160391      20.49474814      11.68593026 
Ag      21.54662250      17.69726366      12.46927886 
Au      21.23598325      14.96995799      13.46499772 
Au      20.34099574      11.86973563      13.69234925 
Au      19.86891236      11.96236191      17.11878699 
Ag      19.10507962      11.92971010      19.94576917 
Au      18.27881355      11.98079615      22.74803882 
Au      11.21458310      14.20194031      17.36576078 
Ag       9.53147720      18.30077562      22.74584814 
Au      10.15747001      24.90936295      20.90181746 
Au      12.13111765      24.92815385      14.20767276 
Au      12.95622390      18.43153024      12.06023796 
Au      11.96695810      27.68545555      22.03915361 
Ag      10.70981212      18.84866550      25.90332983 
Ag      12.88315139      11.98559561      19.35196031 
Au      15.63928373      16.50985268      10.73702075 
Au      14.94474163      26.36090152      12.51578307 
Ag      14.36661338      26.61973591      25.61152627 
Au      17.52032899      28.82090198      15.18607635 
Ag      19.34179819      18.89920598      10.39915945 
Au      16.94570400      10.81131384      17.51877463 
Au      13.87691030      15.78476710      27.23927229 
S      11.19091717      22.82590673      14.66866427 
S      11.45097196      18.40074288      13.85786029 
S      10.20897015      16.30009739      17.66973617 
S       9.13997221      19.52223101      20.70707872 
S       9.91166096      23.64118557      18.94738568 
S      12.95905858      27.05112627      13.60891419 
S      10.21052105      26.29873810      22.80134289 
S       9.35128880      17.13925518      24.83817271 
S      12.02917888      12.01931420      17.07303392 
S      14.31282467      18.37975012      10.13496374 
S      12.78557654      26.53809655      18.06007595 
S      10.92436380      22.04522760      23.83651379 
S      11.76828088      15.10703969      21.52050251 
S      14.25240443      15.06843967      14.52416600 
S      14.80349825      22.18975253      12.39516860 
S      16.84984828      25.86305983      11.24453181 
S      13.56949097      29.25144476      21.33623130 
S      11.50699051      20.36954082      27.62705714 
S      13.37960994      11.17964584      21.58294274 
S      16.86008395      14.53679951      11.07775553 
S      18.27651301      20.93977489       9.51025343 
S      15.80454628      29.63013640      16.58932062 
S      12.67431925      25.27720872      26.77909649 
S      12.95887161      14.01227511      25.95561819 
S      16.38424108      11.10626331      15.23469433 
S      20.69611662      16.87860410      10.27196544 
S      19.31331672      28.30873997      13.75275520 
S      15.86594660      28.47314549      25.16382563 
S      14.66596388      17.30048298      28.86385183 
S      17.55006511      10.00161903      19.65440436 
S      20.57231399      10.30402683      15.42629010 
S      20.23360408      13.38165719      11.89190917 
S      22.55559783      21.67455033       9.69950071 
S      20.50290744      25.71952882      10.94360988 
S      19.74572541      31.06261529      18.08574237 
S      17.04637540      30.50898792      21.90071754 
S      16.15831621      25.47412661      29.31821745 
S      14.49824842      21.09825693      29.74036910 
S      16.68068159      12.55902244      27.60334296 
S      16.56626366      10.37195021      23.44004317 
C       9.52864028      23.10557626      15.38368492 
C      10.10267777      19.57470827      13.45793792 
C       9.28360435      16.69130147      16.13951589 
C       8.12507448      18.55782072      19.52656611 
C       8.37090986      22.66647325      19.12805359 
C      11.89450466      27.63219534      12.22676865 
C       8.71515245      27.35919065      22.64399920 
C       7.64365197      17.44472707      25.45807195 
C      10.54204260      10.93528925      17.11786350 
C      13.23254238      17.71414658       8.80329180 
C      11.10840144      26.65634917      17.32694206 
C       9.20553294      22.10292022      23.20580095 
C      10.00634026      15.20011540      21.02789758 
C      12.55377657      14.81283941      13.87419634 
C      13.13970157      22.20905606      11.62281285 
C      16.20073464      24.91658519       9.80789978 
C      12.89985118      29.97010191      19.78634905 
C      10.46428276      21.87531876      27.54369039 
C      11.89484634      11.49360034      22.61432607 
C      15.58599497      13.22608920      11.27018215 
C      16.88564585      20.42651077       8.43459560 
C      14.34282156      29.95330045      15.53467828 
C      11.03471193      26.00031404      26.40040017 
C      11.13925726      14.13111003      26.12284483 
C      14.72075378      10.36485417      15.01988836 
C      22.02964204      17.28956782       9.07357678 
C      20.28116758      29.86901237      13.70426368 
C      16.26677175      29.13726702      26.83029200 
C      15.18404761      16.20373714      30.24594407 
C      18.62916955       8.56482437      19.26343680 
C      19.34345900       8.97801880      15.12362330 
C      21.52461586      12.87683332      10.69567156 
C      21.72098350      21.16010783       8.14790965 
C      21.59135636      27.02691519      10.26372556 
C      18.73225027      32.07365255      16.93521952 
C      17.56064548      31.85019158      23.03655342 
C      14.69244985      26.53928761      29.61332183 
C      14.85090312      20.71106345      31.49879557 
C      15.06326401      12.24898855      28.41093485 
C      17.38529850       8.76290736      23.75460750 
H      31.98943000      22.48660679      25.73803695 
H      31.87224299      24.12468857      26.44170006 
H      31.39874389      23.83544912      24.73036860 
H      31.47407025      19.79450751      26.36740674 
H      31.39851712      19.44407990      28.12366749 
H      30.40133194      20.76969614      27.41284806 
H      32.07281502      17.72791393      24.21968284 
H      32.42834167      16.00614411      24.56644705 
H      31.01230912      16.81331756      25.32852229 
H      33.75542493      18.36684024      20.65606294 
H      32.33549556      17.46421406      21.28711375 
H      32.86213565      18.97664505      22.08119444 
H      33.43654330      23.07867348      21.87668489 
H      32.47060815      21.77792620      21.09564997 
H      32.62287141      21.83451333      22.87428047 
H      29.81441977      28.12401454      27.96467662 
H      29.02022300      27.12345128      29.21705933 
H      28.42619108      28.78005698      28.88639814 
H      32.23914018      28.26381551      17.82901642 
H      33.18753606      26.84142543      18.36111856 
H      32.29474058      27.82145557      19.56263669 
H      33.09386513      16.56091637      14.39539057 
H      33.63147777      16.25328107      16.07623528 
H      33.49477346      17.93263843      15.47428838 
H      30.03086425       9.91330021      23.84998247 
H      30.91959294      11.18693877      24.74613411 
H      30.99181567      11.13341187      22.95576546 
H      28.62517847      18.50685589      32.23923398 
H      28.36814725      16.82674230      31.66889624 
H      27.27230433      17.53197127      32.89941969 
H      30.43998236      27.04533575      22.76397286 
H      30.12451880      25.56245854      23.71409607 
H      29.74930279      27.16847987      24.41877961 
H      32.23757865      21.55874413      17.16881123 
H      31.70991225      21.96221797      18.82971627 
H      31.95106602      23.27386313      17.62575980 
H      31.22354536      14.79019753      18.35511408 
H      30.90464944      13.55570693      19.62479109 
H      31.19596467      15.25966891      20.08892216 
H      29.13941155      14.05732562      26.66072395 
H      28.84798353      15.19802425      28.02291763 
H      29.34560626      15.82223758      26.42324200 
H      27.95313809      23.44520447      29.73055109 
H      28.59229850      22.14268430      28.68187394 
H      27.79112308      21.72639388      30.23378900 
H      23.87493273      24.61799864      31.63867161 
H      25.24938221      25.76851390      31.70667452 
H      25.38001621      24.24936632      30.74922124 
H      28.75815264      30.63119441      20.78419456 
H      28.22616827      29.24041442      21.80046078 
H      27.09197185      30.58730753      21.45396189 
H      31.43299517      21.41497005      12.92672024 
H      30.69540649      21.96116304      14.47988131 
H      30.01566420      22.51967692      12.92067949 
H      28.37538585      10.87284132      17.42388460 
H      29.43046472      10.27101292      18.74267904 
H      29.18393541      12.03827495      18.50904271 
H      24.86457843      12.40235509      29.17691809 
H      25.86315831      13.10294373      30.49414936 
H      26.15592537      13.57862624      28.77988052 
H      24.77157501      21.35389248      32.62589551 
H      24.77874441      19.69943847      31.94948718 
H      23.79153785      20.06975165      33.40038904 
H      27.21883510      30.42933575      24.60704876 
H      26.72695912      29.31550112      25.92163721 
H      26.12866768      31.01266397      25.90477745 
H      29.98383312      26.92505729      14.03083951 
H      30.60101389      25.29554752      14.44702219 
H      29.88691642      26.32641623      15.71896846 
H      29.92696093      13.58229509      13.62816078 
H      30.11873338      12.98395688      15.30439324 
H      30.21391744      14.74067643      14.97147490 
H      26.14457292       9.40955593      25.83676272 
H      26.50231593      10.80974141      26.89808866 
H      26.90133845      10.89065002      25.15501454 
H      18.27722252      16.40613259      31.71530230 
H      18.54954870      18.16784618      31.59405415 
H      19.47831245      17.19597347      32.78234950 
H      19.65095870      29.57518330      27.75951770 
H      20.32609822      30.16104895      26.20826358 
H      21.15051886      30.55896384      27.75525124 
H      25.45125087      29.69634823      13.71127524 
H      23.72537559      29.86013115      14.15809461 
H      24.30593928      28.35395954      13.38215784 
H      25.42136448      17.11331416      10.09926991 
H      25.26046538      15.59846961      11.03982986 
H      26.85369368      16.06352155      10.34975345 
H      21.76999618       8.17242824      20.68741306 
H      21.38598499       8.84389584      22.29858038 
H      22.77556067       7.72365556      22.09835889 
H      21.67793514       8.33576974      24.87435046 
H      21.20349484       8.33743315      26.60379241 
H      22.54611006       9.39039134      26.03220862 
H      19.69219497      11.85545805      30.70491165 
H      18.40668572      12.56656367      29.66893526 
H      19.23532878      13.57825531      30.90600719 
H      18.98833944      20.08663074      33.04599893 
H      19.02270134      21.79262879      33.59052233 
H      20.40477427      21.11783256      32.65633249 
H      19.52524487      27.92378656      30.16613924 
H      19.39780696      27.03422850      31.71589812 
H      18.19594228      26.73306180      30.41210968 
H      22.20579168      33.11312848      23.51265905 
H      23.10871724      31.68220465      24.11473951 
H      21.57003779      32.16576553      24.89152293 
H      23.82520004      31.74291802      16.94003655 
H      23.75942169      32.87249724      18.32881793 
H      22.28180561      31.98291723      17.82874973 
H      26.49552085      26.52301949      10.33531663 
H      27.00381370      26.27774527      12.03811968 
H      25.95849658      27.66245348      11.60439189 
H      26.78395218      21.41812409       8.81108260 
H      25.07228636      21.00538459       9.14129141 
H      26.34296255      19.74467741       9.25924061 
H      25.79352207      12.92804549      11.53570958 
H      25.76635250      11.24424719      12.14897203 
H      26.60464742      12.53381690      13.08554668 
H      24.17863516       8.15263591      16.49192832 
H      22.56047292       8.93398658      16.52383820 
H      23.30187668       8.31938920      18.04626899 
H       8.88778780      23.54839405      14.61285946 
H       9.57127305      23.75387384      16.26436768 
H       9.13206413      22.12419464      15.67246383 
H       9.57813967      19.21690469      12.56486222 
H      10.48419433      20.58823238      13.29967424 
H       9.41269831      19.57650452      14.31115694 
H       8.49701284      15.94011294      16.00639864 
H       9.93829743      16.72079019      15.26281008 
H       8.82626460      17.67849694      16.28238412 
H       8.05520132      19.13241154      18.59458566 
H       7.12356803      18.43660050      19.95530143 
H       8.56295868      17.57849678      19.30916570 
H       8.24501208      22.09685812      18.19870577 
H       7.53221062      23.36079413      19.24898454 
H       8.42516545      21.96832162      19.96964596 
H      12.33907689      28.54875084      11.82166291 
H      10.90147937      27.85124759      12.63600676 
H      11.81322716      26.87838424      11.43896560 
H       7.83482789      26.73344291      22.83105561 
H       8.64760345      27.81194578      21.65111131 
H       8.78067670      28.14324284      23.40742234 
H       6.94603167      16.83238541      24.87493364 
H       7.36116850      18.49774971      25.37220445 
H       7.59989534      17.14256102      26.51101352 
H       9.97044950      11.08231542      16.19447543 
H       9.90929325      11.15486179      17.98218792 
H      10.89078163       9.89712084      17.17272996 
H      13.86080300      17.52345095       7.92532980 
H      12.48244769      18.47653032       8.56318625 
H      12.73738309      16.79003161       9.11363298 
H      11.17690946      27.23225194      16.39686924 
H      10.46561471      27.17573541      18.04845181 
H      10.69635153      25.66423139      17.12196007 
H       8.84110998      23.12789457      23.34817695 
H       8.59054860      21.40333774      23.78517066 
H       9.15643356      21.83913845      22.14586383 
H       9.76518957      14.30432761      20.44236305 
H       9.81230942      16.09217312      20.42608538 
H       9.40984171      15.22870858      21.94851472 
H      12.60432534      14.85380953      12.77950831 
H      11.88403389      15.59524599      14.24394415 
H      12.21001770      13.82865260      14.21284146 
H      13.17022469      21.53585990      10.75787109 
H      12.92565167      23.23655279      11.30461689 
H      12.37662075      21.87524904      12.33210485 
H      15.64621780      25.59267361       9.14833311 
H      15.56217215      24.08649465      10.12911677 
H      17.07407742      24.51304461       9.28014038 
H      13.70338825      30.57456305      19.34696119 
H      12.04462735      30.60824024      20.03493898 
H      12.60630805      29.18292260      19.08280888 
H      10.99948722      22.68556027      28.05418333 
H       9.52138338      21.66423679      28.06166810 
H      10.27157296      22.16282170      26.50352836 
H      11.14551305      10.72727046      22.38459811 
H      11.48454899      12.49248620      22.42783631 
H      12.19512047      11.41611741      23.66658256 
H      15.09179151      13.05158654      10.30836613 
H      14.84746181      13.48942461      12.03463687 
H      16.11635492      12.31807944      11.58393497 
H      17.30410622      20.05949632       7.48983144 
H      16.25787894      21.30438260       8.24042688 
H      16.27977000      19.64432624       8.90224819 
H      14.55763014      30.81927796      14.89822587 
H      13.50784130      30.18660234      16.20667544 
H      14.08472331      29.08475912      14.92074212 
H      10.26818733      25.25627325      26.64801497 
H      10.94570807      26.27225822      25.34423591 
H      10.90092282      26.88893509      27.02860680 
H      10.70088640      13.41306180      25.41907977 
H      10.77050150      15.13643332      25.89380882 
H      10.86891498      13.85386284      27.14827766 
H      14.41034676      10.56616184      13.98708316 
H      13.98999919      10.80087940      15.70888707 
H      14.78693570       9.28247137      15.17602210 
H      21.59674910      17.38316352       8.07082760 
H      22.75617409      16.46781915       9.07757600 
H      22.54097808      18.21955018       9.34397562 
H      19.70258843      30.62489917      13.16102694 
H      21.21195572      29.65634282      13.16416023 
H      20.51643379      30.22379084      14.71318611 
H      17.10803461      29.83311072      26.72706144 
H      16.53866400      28.33761426      27.52781891 
H      15.38985481      29.67762554      27.20634017 
H      14.29650737      15.73471124      30.68524713 
H      15.67276142      16.83643759      30.99721538 
H      15.88685217      15.43587872      29.90674074 
H      18.02528233       7.77610023      18.80068211 
H      19.04392310       8.19852230      20.21081469 
H      19.44888148       8.84994248      18.59591435 
H      19.68994871       8.39731764      14.26082285 
H      18.34789517       9.39262658      14.93480385 
H      19.31573736       8.33756621      16.01306377 
H      21.65931719      13.72033134      10.00712832 
H      21.16010209      12.00190628      10.14474261 
H      22.46608906      12.64109903      11.20315626 
H      21.99637706      21.87836345       7.36707984 
H      20.63354398      21.13178424       8.27405388 
H      22.09331498      20.16459922       7.87970438 
H      21.46061502      27.05231086       9.17564851 
H      22.64158613      26.84011927      10.51642066 
H      21.25642452      27.97763988      10.69612425 
H      19.25644860      32.11806632      15.97317270 
H      18.64716217      33.08389794      17.35140671 
H      17.73783016      31.64014143      16.79081584 
H      17.16265987      32.79790827      22.65525399 
H      18.65220952      31.90345028      23.11706426 
H      17.11451962      31.62880739      24.01381582 
H      14.99548839      27.58013334      29.44816434 
H      14.37715027      26.41217355      30.65503675 
H      13.87126900      26.28162359      28.93597036 
H      14.64243703      19.64294464      31.63708750 
H      14.17797610      21.29869206      32.13352695 
H      15.89294430      20.92718533      31.75747985 
H      15.03500075      11.19559680      28.71292284 
H      14.23117427      12.47681259      27.73773040 
H      15.00401996      12.88969351      29.29875874 
H      17.60178351       8.31657285      22.77630468 
H      16.68383646       8.12297287      24.30278183 
H      18.30902193       8.89019420      24.32943400 
