646
Properties=species:S:1:pos:R:3 i=101 optimized=T E=-10058.2516479196 pbc="F F F" jobid=246_80-Ag-50_0-000004-PBE
Ag      21.89216173      20.20932643      20.94728163 
Au      24.74964801      20.21259337      21.87790702 
Au      20.45410201      22.73399648      20.47537724 
Ag      19.73399270      20.97566593      22.74297173 
Ag      20.02478507      18.16463719      21.89182177 
Au      21.17275918      23.53937686      23.21900782 
Au      20.38288373      21.77439756      25.43803324 
Ag      20.72097767      18.96105065      24.63817477 
Ag      20.92341255      16.14333762      23.74313460 
Ag      21.88443098      16.14499389      20.96761269 
Au      22.73598860      16.13217974      18.08014842 
Ag      23.09848991      18.91744954      17.23225368 
Au      23.30591028      21.74304674      16.42772705 
Au      22.62787870      23.52106080      18.61189828 
Au      21.86731372      25.24669657      20.90532730 
Au      23.34768030      22.72969121      21.39284528 
Au      22.61944034      20.98377061      23.68989044 
Ag      22.89047494      18.19991783      22.82825984 
Au      23.77789865      18.19325010      20.01758766 
Au      24.10606704      20.97923514      19.11732906 
Ag      20.89601067      14.04430929      19.02729219 
Ag      21.86697330      14.05836986      16.16485018 
Au      22.17977871      16.88097443      15.29635373 
Au      22.38413492      19.74606477      14.39766284 
Au      22.64487421      22.61274874      13.59993837 
Ag      21.99676763      24.37266871      15.87295559 
Au      21.21293702      26.10776173      18.14498031 
Ag      20.47873884      27.80882911      20.51056432 
Au      25.32931940      22.53708224      14.52394235 
Ag      24.79030978      24.33349861      16.74807171 
Ag      24.04709890      25.99612106      19.01462822 
Ag      23.25765670      27.73541078      21.34284870 
Ag      22.61704910      26.11285527      23.67256586 
Ag      21.78909748      24.34198503      25.88278977 
Ag      20.98798680      22.57991450      28.18405902 
Au      21.40212143      19.74667708      27.47593161 
Ag      21.56052578      16.97625901      26.50538623 
Ag      21.80642921      14.11502348      25.59265397 
Au      22.80059181      14.02412330      22.85275075 
Au      23.67912300      14.08870274      20.03781548 
Ag      24.58751200      14.10439771      17.13149606 
Ag      24.98273084      16.85900524      16.23383144 
Au      25.17711960      19.66824720      15.39881395 
Au      23.59381937      18.97823540      25.63385082 
Au      23.71822754      16.20144833      24.69738782 
Au      24.77143645      16.14474032      21.93844587 
Au      25.53136080      16.12743674      19.06929804 
Au      26.04521046      18.93420807      18.17775507 
Ag      26.20663541      21.70482179      17.24952024 
Ag      25.55789449      23.51486280      19.49317339 
Ag      24.69388729      25.21497080      21.75743904 
Ag      24.07185132      23.57311790      24.16476088 
Au      23.22011302      21.81967060      26.39005214 
Au      26.21417288      22.75609279      22.31476405 
Au      25.52541491      20.99569366      24.63665816 
Ag      25.79510253      18.15898727      23.78842874 
Ag      26.67957739      18.14714214      20.91950515 
Au      26.97217144      20.97918255      20.01800163 
Ag      27.63675032      20.20352882      22.79444856 
Ag      27.55885835      15.31369851      21.30044685 
Au      28.51197119      17.45306653      18.64785745 
Ag      28.81633657      20.08521468      17.70668127 
Ag      28.39613769      23.22780490      18.72657182 
Au      27.65285801      24.95464253      20.83754396 
Au      26.64423617      24.91271987      24.31757116 
Au      25.96432446      23.36802246      26.48269811 
Ag      25.64436653      20.08751525      27.41779516 
Au      25.86505464      17.38742409      26.70607301 
Au      26.75285116      15.39267755      23.98252751 
Au      28.54217650      17.51976844      23.01101926 
Au      29.30954815      19.45233638      20.63439135 
Au      28.97480091      22.37618793      21.53320059 
Ag      28.09488916      22.36866654      24.61911955 
Au      27.77161807      19.42596047      25.50840371 
Au      25.55392261      13.35931938      22.21587256 
Ag      26.36227916      13.39942723      19.33096949 
Ag      27.29577328      15.26988001      17.06646931 
Au      27.56936199      18.06816817      15.90670920 
Au      27.67700258      20.94019308      14.87778826 
Au      27.50894433      23.81361855      15.93661007 
Ag      26.88619698      25.69964854      18.15578616 
Ag      25.99729013      27.41746868      20.45790060 
Ag      25.24750987      27.39432868      23.44636476 
Ag      24.39048022      25.84293103      25.92210992 
Au      23.44055678      24.01219800      28.13385873 
Ag      23.41860594      21.14562017      29.13996263 
Ag      23.63805987      18.18894292      28.39103992 
Au      23.69076232      15.33746447      27.36380000 
Ag      24.68417964      13.55804358      25.08460779 
Au      24.34485209      11.69252093      15.32971056 
Ag      24.07925070      14.88246683      14.31226629 
Ag      24.21984929      17.69056352      13.46385256 
Au      24.40499350      20.49086803      12.59994510 
Ag      25.44533232      23.24896606      11.57243803 
Ag      24.15685164      25.13672359      13.98638120 
Ag      23.37756257      26.85537489      16.25581541 
Au      22.62435201      28.49913184      18.60006882 
Ag      22.52983881      30.64026843      20.85693899 
Au      21.16999345      28.60441504      23.26912208 
Au      20.36602476      26.84844530      25.46010251 
Ag      19.61601824      25.15518330      27.76024803 
Ag      19.29169722      23.52548314      30.45170401 
Au      19.25368571      20.50044221      29.27494031 
Au      19.42247597      17.71869678      28.38171660 
Ag      19.69660908      14.92065989      27.47747230 
Ag      20.42545866      11.83486696      26.95203960 
Ag      21.00443374      11.96607672      23.76512641 
Ag      21.84226346      11.98630806      20.95377895 
Au      22.71588974      12.08643440      18.18514956 
Ag      29.49161983      14.29955513      23.43970938 
Au      31.41339507      18.35853800      18.03635342 
Ag      30.57917704      24.82226288      20.20303455 
Ag      28.48433909      24.99564235      26.67707812 
Ag      27.87700755      18.45613678      28.64912028 
Au      28.99125514      27.65802078      18.98544950 
Ag      30.16057651      18.96738121      14.90297272 
Au      27.98008876      11.72641872      21.72307960 
Au      25.36607297      16.58558254      30.14258445 
Au      25.87189683      26.49684167      28.38555019 
Ag      26.46023775      26.70717033      15.24344978 
Au      23.30959243      28.72009031      25.61448796 
Ag      21.60905750      18.94086799      30.49742822 
Ag      23.89975442      11.05947219      23.35555598 
Au      27.02183144      15.71289372      13.87114111 
S      29.71629094      22.94167240      26.44893953 
S      29.52857533      18.40480782      26.89107541 
S      30.71309917      16.32394641      23.00201405 
S      31.69990758      19.59249756      20.01273113 
S      30.97546216      23.59908963      22.24534845 
S      27.77475132      27.25564025      27.21537802 
S      30.71871860      26.22516671      18.24337857 
S      31.35723822      17.16602101      16.00964202 
S      28.72978375      12.06343833      23.94264913 
S      26.68566716      18.44528712      30.75789129 
S      27.84580625      26.48767091      22.85197875 
S      29.98318943      22.22458515      17.09413654 
S      29.05178806      15.11519841      19.28172112 
S      26.85811852      15.09621403      26.43345548 
S      26.05586101      22.20045472      28.67988669 
S      23.98468813      25.86338672      29.63655615 
S      27.42403867      29.29257318      19.61074857 
S      29.45758233      20.58974721      13.25560586 
S      27.36045580      11.13057348      19.53350241 
S      24.03960457      14.69291912      29.69862392 
S      22.62975608      20.92419026      31.46880500 
S      24.95196970      29.73886173      24.24698590 
S      28.24271460      25.39173463      14.21685670 
S      27.88937635      13.88468174      15.10571798 
S      24.39566152      11.20439977      25.74745631 
S      20.40049937      16.81342229      30.42843453 
S      21.62203036      28.13020350      27.16008495 
S      24.99737006      28.60920537      15.57171885 
S      26.29035436      17.19509008      12.18823095 
S      23.25608667       9.96206768      21.28370652 
S      20.25562157      10.12590219      25.27812042 
S      20.75430035      13.19071936      28.90120506 
S      18.27933422      21.49643311      31.28563460 
S      20.34777743      25.65370793      30.08819911 
S      21.09546568      31.02960759      22.73470991 
S      24.02356774      30.46108439      18.97793996 
S      24.77197151      25.55753390      11.58928977 
S      26.33082251      21.02031701      11.21597914 
S      24.27100729      12.64023006      13.18368144 
S      24.44905701      10.54278374      17.38177861 
C      31.40557490      23.33965431      25.85448231 
C      30.85968721      19.61011551      27.25512205 
C      31.72374466      16.72802211      24.47815061 
C      32.75653410      18.59014886      21.12199359 
C      32.46485395      22.54627600      22.06212870 
C      28.88798880      27.88904958      28.53704564 
C      32.23263020      27.25924661      18.41431753 
C      33.07002594      17.27146899      15.34171515 
C      30.23254859      11.00628282      24.06407092 
C      27.83321855      17.78163690      32.03528951 
C      29.51912956      26.81106431      23.54117354 
C      31.69729668      22.38816877      17.73234760 
C      30.85883792      14.88987992      19.52613472 
C      28.60691289      14.88297582      26.94388921 
C      27.71918463      22.15992265      29.46025786 
C      24.67026921      24.95930770      31.07994873 
C      28.09187674      30.00721463      21.16641637 
C      30.54539932      22.05457082      13.43762838 
C      28.90065784      11.27132966      18.54258699 
C      25.24065040      13.31661520      29.51527620 
C      23.97434911      20.38562213      32.59564023 
C      26.31307020      30.24750198      25.36769241 
C      29.84179770      26.18387161      14.63155011 
C      29.70830865      13.92884998      14.86813594 
C      26.02811215      10.40773418      26.01101429 
C      19.07485733      17.05399341      31.67852324 
C      20.65211419      29.68097320      27.33233696 
C      24.56062488      29.10557412      13.85475453 
C      25.80009525      16.06286347      10.82453362 
C      22.12299704       8.61277799      21.81141354 
C      21.53842377       8.88546277      25.71689187 
C      19.53496927      12.63122559      30.15444705 
C      19.18054459      21.03330418      32.81676114 
C      19.21714010      26.89857899      30.82711290 
C      22.04247143      32.04828329      23.93310993 
C      23.52696377      31.71315845      17.73459420 
C      26.28228581      26.55200815      11.26645801 
C      25.95283823      20.54371742       9.48777944 
C      25.89663404      12.26416557      12.41954354 
C      23.64928207       8.91945080      17.09544689 
Au      19.07040160      20.20505682      20.02997206 
Au      16.21293669      20.22933066      19.12005042 
Ag      21.20153812      20.99601262      18.22502398 
Au      20.93516029      18.17654916      19.05417518 
Ag      19.76142383      23.57872849      17.75466956 
Au      20.53384690      21.81789436      15.55730689 
Ag      20.27191924      18.98810475      16.30219278 
Ag      19.98468151      16.14412757      17.16723089 
Ag      19.09266636      16.14784282      19.97513170 
Ag      18.19298724      16.13435889      22.79848089 
Au      17.90609886      18.90401510      23.70932512 
Au      17.57906973      21.73618358      24.57837783 
Au      18.28603623      23.53341746      22.34226275 
Ag      19.07937031      25.23928836      20.05628518 
Ag      17.60093029      22.72746754      19.59863005 
Au      18.33433655      21.02496161      17.27909132 
Au      18.09177265      18.19316644      18.10489624 
Ag      17.15269468      18.18372294      20.94985896 
Au      16.84407914      20.96110723      21.85801490 
Ag      20.05837745      14.04005055      21.88827398 
Ag      19.07932694      14.01291251      24.74945301 
Au      18.77406766      16.82295033      25.61159840 
Au      18.54667751      19.72269227      26.54402080 
Au      18.24085020      22.55524841      27.36090034 
Au      18.93335128      24.34603161      25.10243776 
Ag      19.75453081      26.09755443      22.79461495 
Ag      15.49475725      22.50273408      26.47782545 
Ag      16.08723414      24.29987883      24.21960257 
Ag      16.93863454      26.00185300      21.95707925 
Au      17.74336793      27.74610533      19.67220686 
Ag      18.36784237      26.15811352      17.30586718 
Ag      19.13787791      24.42186379      15.09253157 
Au      19.91354321      22.63996086      12.82911417 
Au      19.54699433      19.81082875      13.54532596 
Au      19.30839755      17.00917746      14.45679255 
Ag      19.07263668      14.10149736      15.28851755 
Au      18.11368159      14.06280934      18.02886268 
Au      17.31244198      14.12051991      20.86867643 
Au      16.40839391      14.07737367      23.77434960 
Au      15.97342726      16.86197099      24.64677894 
Ag      15.78501318      19.62676539      25.53268071 
Au      17.29206284      18.99744286      15.28291752 
Ag      17.18040391      16.20343099      16.23029096 
Ag      16.16476188      16.15360374      19.01800410 
Au      15.35329562      16.11408670      21.82235725 
Ag      14.88437939      18.85732688      22.79447034 
Ag      14.77811837      21.65264398      23.70274055 
Ag      15.36647181      23.53294028      21.47933902 
Au      16.23031264      25.22601337      19.22469190 
Au      16.87445557      23.61077551      16.86509003 
Au      17.67701572      21.91056295      14.60846451 
Au      14.73340981      22.77942782      18.66065396 
Au      15.42688933      21.03645447      16.30094977 
Au      15.19635029      18.18999135      17.16798142 
Au      14.26246948      18.12689891      20.03180909 
Ag      14.02575027      20.98936722      20.95135685 
Ag      13.36270717      20.21437873      18.18075524 
Ag      13.32289207      15.25578329      19.70044925 
Ag      12.45242000      17.29981397      22.24149339 
Ag      12.21828896      19.96553029      23.23699111 
Au      12.54523378      23.28571015      22.13521926 
Ag      13.23006616      25.03142392      20.04926522 
Au      14.20954389      24.97083325      16.63541313 
Au      14.91754456      23.41130172      14.46471212 
Ag      15.33614254      20.09135593      13.50418368 
Ag      15.15144339      17.33312886      14.22594371 
Ag      14.21081632      15.46351312      16.97124749 
Ag      12.42259707      17.52896963      17.89510786 
Au      11.72721056      19.39361504      20.34665391 
Au      12.00683459      22.40613657      19.36650957 
Ag      12.87268508      22.38690733      16.40382351 
Ag      13.22565531      19.38343385      15.43551338 
Au      15.38488985      13.43878115      18.67227422 
Au      14.67625784      13.31668229      21.60770604 
Au      13.71048817      15.18681203      23.90656710 
Ag      13.32805535      17.91714890      25.02669350 
Au      13.27972326      20.79274875      25.93418477 
Ag      13.26675256      23.66891979      24.95785514 
Ag      14.04381396      25.72144120      22.79175621 
Au      15.01518838      27.43282253      20.51062951 
Ag      15.68293865      27.43210108      17.54757283 
Au      16.57402903      25.87157769      15.11613619 
Au      17.45504390      24.08346570      12.79912901 
Ag      17.54184983      21.21450673      11.87490387 
Ag      17.41323572      18.23167953      12.49649609 
Au      17.27171930      15.35758480      13.45622139 
Ag      16.17276616      13.58613364      15.79037997 
Au      16.68205594      11.63747053      25.58742307 
Ag      16.77583388      14.84836931      26.54792006 
Au      16.70905815      17.61688201      27.44635387 
Ag      16.42591297      20.42660548      28.34035525 
Au      15.30029315      23.24948443      29.39817285 
Au      16.78248576      25.10278809      26.89834495 
Ag      17.61109137      26.81995389      24.68231729 
Ag      18.35094744      28.58169809      22.41838541 
Ag      18.45446978      30.62985050      20.01718962 
Au      19.78341521      28.62825411      17.75138023 
Ag      20.58705062      26.93022583      15.50124877 
Au      21.31494777      25.19369952      13.26200489 
Ag      21.52207385      23.69716072      10.51095986 
Ag      21.57393063      20.57003093      11.62097213 
Ag      21.44336688      17.77885497      12.57464947 
Au      21.22769678      14.98998265      13.48447619 
Au      20.39127538      11.87905078      13.71724501 
Au      19.94916776      12.02754200      17.15410270 
Ag      19.12259936      11.99594328      19.94797618 
Au      18.25751656      12.04633560      22.71291558 
Ag      11.38224057      14.42057535      17.56663319 
Au       9.55476023      18.42940579      22.79885323 
Au      10.22131812      24.98367479      20.89694487 
Ag      12.26537953      24.83013106      14.32530761 
Ag      13.06826997      18.38691243      12.35637169 
Au      12.00849361      27.75325488      22.07423251 
Au      10.65042971      18.60912592      26.10869347 
Ag      12.90443210      12.02981142      19.29242888 
Ag      15.48406616      16.48755988      11.09546238 
Ag      14.93202892      26.15901639      12.70832625 
Au      14.35054585      26.69268480      25.63974472 
Au      17.67052422      28.71784758      15.33313575 
Au      19.30834755      18.97318409      10.16732907 
Ag      17.01950936      11.11236751      17.54411192 
Au      13.79743945      15.70838827      27.20679766 
S      11.13895515      22.72288023      14.65055712 
S      11.45857190      18.23800882      14.12553730 
S      10.18152717      16.45431375      17.97290127 
S       9.35441487      19.81051617      20.91727121 
S       9.95663216      23.74075945      18.92614875 
S      12.91376776      27.06627533      13.69409924 
S      10.26632071      26.34668443      22.82438115 
S       9.52685225      17.06392875      24.71785403 
S      12.05948399      12.17646417      17.03141024 
S      14.24504717      18.38419948      10.26000112 
S      12.99208547      26.56873352      18.04199885 
S      11.12866668      22.19084860      23.87140571 
S      11.67181039      15.00303747      21.61759668 
S      14.11464436      15.02438916      14.51020617 
S      14.76169588      22.19595374      12.28931339 
S      16.79453086      25.78447659      11.20159799 
S      13.66586609      29.27203802      21.41007110 
S      11.63904427      20.07490072      27.64516731 
S      13.49981897      11.19975249      21.48709106 
S      16.71605880      14.41807797      11.27006635 
S      18.19668701      20.94575657       9.50373175 
S      15.95843284      29.71639926      16.63813119 
S      12.79887029      25.30842438      26.77263207 
S      12.95524781      13.94211702      25.88946365 
S      16.45198408      11.20124947      15.17057685 
S      20.59981716      17.00730679      10.36198860 
S      19.41380728      28.31088081      13.79104135 
S      15.71880170      28.43304178      24.81227180 
S      14.64387625      17.28805546      28.73645271 
S      17.57984124      10.05842976      19.66043432 
S      20.63157299      10.33196092      15.46618035 
S      20.24780674      13.38046682      11.90759031 
S      22.50170324      21.70183477       9.59733257 
S      20.55065824      25.85413304      11.02111823 
S      19.89413649      31.06484234      18.13425331 
S      17.00220765      30.63839862      21.92698952 
S      16.19661916      25.42380729      29.28754104 
S      14.39912577      21.10047729      29.66857999 
S      16.76141575      12.63647470      27.71982257 
S      16.51758785      10.48631448      23.53744980 
C       9.47876412      23.04992704      15.35749045 
C      10.07556015      19.36698904      13.69757976 
C       9.17306474      16.78344001      16.47657252 
C       8.25036255      18.93000739      19.74960150 
C       8.41182355      22.77763153      19.13172556 
C      11.86254710      27.54626363      12.25921713 
C       8.76887107      27.40798566      22.69648126 
C       7.79036866      17.12781716      25.32318476 
C      10.51251223      11.17358561      17.03232689 
C      13.09575081      17.65839277       9.01302183 
C      11.32659061      26.84226098      17.31613347 
C       9.34682507      22.49593304      23.54337529 
C       9.86362227      14.98451255      21.29362600 
C      12.41250811      14.60513088      13.95142894 
C      13.07363412      22.08152585      11.57410485 
C      16.12251638      24.78890728       9.81321673 
C      13.01457717      30.04600535      19.87763992 
C      10.51740405      21.52613451      27.71430112 
C      12.04572200      11.43125625      22.57874528 
C      15.50411388      13.09498682      11.64821241 
C      16.80268026      20.43289639       8.42994630 
C      14.59005547      30.06990594      15.46789942 
C      11.15359280      26.08350785      26.52761843 
C      11.13185827      13.96082825      26.05738908 
C      14.79115882      10.44134178      14.98177469 
C      21.96143304      17.31390561       9.16345718 
C      20.33068000      29.90492027      13.78669964 
C      16.07865544      29.42717623      26.31742953 
C      15.16412284      16.26314882      30.16963379 
C      18.65572202       8.64871385      19.17166921 
C      19.38322067       9.01749581      15.18847657 
C      21.54282256      12.85955798      10.71970388 
C      21.61317564      21.36848184       8.02384344 
C      21.69001597      27.13432607      10.37304859 
C      18.90205737      32.04506840      16.94086739 
C      17.56514579      32.03748741      22.97400616 
C      14.81329465      26.59063516      29.58144506 
C      14.66445943      20.68596695      31.43718275 
C      15.14689678      12.24243377      28.50280043 
C      17.24128480       8.82348022      23.78384237 
H      31.95178007      22.39481560      25.73956499 
H      31.91269762      23.95955402      26.60202951 
H      31.37816795      23.85499606      24.88870316 
H      31.53729543      19.63087087      26.39260279 
H      31.40639280      19.26585289      28.14041638 
H      30.45693603      20.61559868      27.42042184 
H      32.24753645      17.67084775      24.27681953 
H      32.45891283      15.92974867      24.63046613 
H      31.09992393      16.84802020      25.37018763 
H      33.73023716      18.44684763      20.64043921 
H      32.29325067      17.62590116      21.35622762 
H      32.88608524      19.16460286      22.04787761 
H      33.34809837      23.19541855      22.05653436 
H      32.42921332      21.95106888      21.14384381 
H      32.51017889      21.87382188      22.92758648 
H      29.84663972      28.14367053      28.06962604 
H      29.04997792      27.14192195      29.31895860 
H      28.44186282      28.79049158      28.97244243 
H      32.19009941      28.06648377      17.67408201 
H      33.09773394      26.61793850      18.20784785 
H      32.32225072      27.68359396      19.41808638 
H      33.04902198      16.88936982      14.31409625 
H      33.72656837      16.64236867      15.95345479 
H      33.43957727      18.30066109      15.34214211 
H      29.92236697       9.95537018      24.03642795 
H      30.71662737      11.21960032      25.02450191 
H      30.93268127      11.20509828      23.24795685 
H      28.56124466      18.56786429      32.26794947 
H      28.35784827      16.88954931      31.68228508 
H      27.25470820      17.54010279      32.93433095 
H      30.05914454      27.44980136      22.83177243 
H      30.05958580      25.86840515      23.67872627 
H      29.39767693      27.32441693      24.50242943 
H      32.33763799      21.68010124      17.19225706 
H      31.74928177      22.17008209      18.80345104 
H      32.03086876      23.41580836      17.54405261 
H      31.36538919      15.12645632      18.58343647 
H      31.03685498      13.84410137      19.80435406 
H      31.21580375      15.54875992      20.32452113 
H      28.94951716      13.91253583      26.56389754 
H      28.64400779      14.89344584      28.04014049 
H      29.23201387      15.68949101      26.54804034 
H      27.93388844      23.15427871      29.86948299 
H      28.48687883      21.89440843      28.72597968 
H      27.68937763      21.41687154      30.26617385 
H      23.81700494      24.51918852      31.61110326 
H      25.18748583      25.67498545      31.72862852 
H      25.35192701      24.16340731      30.76078900 
H      29.00343510      30.57328216      20.94642629 
H      28.29474885      29.23038594      21.91154561 
H      27.32121683      30.68467298      21.55532745 
H      31.49599020      21.83789157      12.93664979 
H      30.71399853      22.29029430      14.49478905 
H      30.04970119      22.90338015      12.95040544 
H      28.61489061      11.11507505      17.49465966 
H      29.60575980      10.49270000      18.85291889 
H      29.35468833      12.26247356      18.64672991 
H      24.67466460      12.45255434      29.14491406 
H      25.66999004      13.09233689      30.49803023 
H      26.02841178      13.57084800      28.79760266 
H      24.51773122      21.28125063      32.92002745 
H      24.67092597      19.70303959      32.09691011 
H      23.53118322      19.89323753      33.46854698 
H      27.12901475      30.61592685      24.73367120 
H      26.67167675      29.40733565      25.97279829 
H      25.96096704      31.05737962      26.01617315 
H      29.95234651      27.07821013      14.00721597 
H      30.64296519      25.47148562      14.40124461 
H      29.89781953      26.45564941      15.69040734 
H      29.93914220      13.69151227      13.82367893 
H      30.13579022      13.15820459      15.52144922 
H      30.12848007      14.90445000      15.13536154 
H      25.91685841       9.32505457      25.88163716 
H      26.34623687      10.62040397      27.03866084 
H      26.78175141      10.78998847      25.31381763 
H      18.33682312      16.25229713      31.55649954 
H      18.58318363      18.02516500      31.55802105 
H      19.52723635      16.98600698      32.67515905 
H      19.75984548      29.44437162      27.92493703 
H      20.35163325      30.07169353      26.35467394 
H      21.26333959      30.41936364      27.86394176 
H      25.43929411      29.56029404      13.38293563 
H      23.75657099      29.84892321      13.91421517 
H      24.22063248      28.25116209      13.25800520 
H      25.33162375      16.67722371      10.04557924 
H      25.08849571      15.30329707      11.16611671 
H      26.69656774      15.58089315      10.41845336 
H      21.65359245       8.19432957      20.91288153 
H      21.34224325       8.97933840      22.48754013 
H      22.70839243       7.83161466      22.31000087 
H      21.64134485       8.18677022      24.87830680 
H      21.19783878       8.34016668      26.60434338 
H      22.50352952       9.36460293      25.91474838 
H      19.90165188      11.70390279      30.60943429 
H      18.54949179      12.46106672      29.70707628 
H      19.46916669      13.41293677      30.92081596 
H      18.92531715      19.99936371      33.07662355 
H      18.83893579      21.70438774      33.61386362 
H      20.26412560      21.12423488      32.68483447 
H      19.52480913      27.88693613      30.46491277 
H      19.32059142      26.86513700      31.91782452 
H      18.17451346      26.70782342      30.54981580 
H      22.09812686      33.06834468      23.53526581 
H      23.04936156      31.64607223      24.08746578 
H      21.49909239      32.05653296      24.88517461 
H      23.95058458      31.39760808      16.77307697 
H      23.95906038      32.67591978      18.03235769 
H      22.43674103      31.79467776      17.66289108 
H      26.56710032      26.41529782      10.21705031 
H      27.10634116      26.24991158      11.92123783 
H      26.04446823      27.60778000      11.44292947 
H      26.69055502      21.02900405       8.83737678 
H      24.94016572      20.84913707       9.19999280 
H      26.05819925      19.45497315       9.40884355 
H      25.95553778      12.81995358      11.47614761 
H      25.94277669      11.18886514      12.21447298 
H      26.72034896      12.56437845      13.07564972 
H      24.34836391       8.28518170      16.53800287 
H      22.71189275       9.03079125      16.53942708 
H      23.45986296       8.48456061      18.08455703 
H       8.86321066      23.54914080      14.60054536 
H       9.54104956      23.67206497      16.25638669 
H       9.02303900      22.08566950      15.61494181 
H       9.61137819      19.02613279      12.76574816 
H      10.41875684      20.40258255      13.59755589 
H       9.33971894      19.31038237      14.50941042 
H       8.41578555      15.99775970      16.37852938 
H       9.79615267      16.82551389      15.57676714 
H       8.67423201      17.75090566      16.61405667 
H       8.20634473      19.53259818      18.83382915 
H       7.25125753      18.86289257      20.19425260 
H       8.63749464      17.93412705      19.50868388 
H       8.31462531      22.13101332      18.25077227 
H       7.56743621      23.47517034      19.16805963 
H       8.44127983      22.16227566      20.03629415 
H      12.30261346      28.43281112      11.78778395 
H      10.86004388      27.79150016      12.62891854 
H      11.78982855      26.74194281      11.52176266 
H       7.89185327      26.77590587      22.87762745 
H       8.69330554      27.87526120      21.71088180 
H       8.83608429      28.17961856      23.47222064 
H       7.16978041      16.55480390      24.62451619 
H       7.42584260      18.15658208      25.38741733 
H       7.76275732      16.65889971      26.31372372 
H       9.96706773      11.37247362      16.10244463 
H       9.87359515      11.41291702      17.88704287 
H      10.78971096      10.11366361      17.07130096 
H      13.67921082      17.37138207       8.13051640 
H      12.36324551      18.42400552       8.73193565 
H      12.57299732      16.78141451       9.40500090 
H      11.44960677      27.29650440      16.32598509 
H      10.78077871      27.51994902      17.98366787 
H      10.78386357      25.89467380      17.23571661 
H       9.14274428      23.56340518      23.68194021 
H       8.76805326      21.90155539      24.26081597 
H       9.08991161      22.19120818      22.52382718 
H       9.59927081      14.00679439      20.87258971 
H       9.57953013      15.77073290      20.58758460 
H       9.34458307      15.13139951      22.24791387 
H      12.43805248      14.42886943      12.86938247 
H      11.72840967      15.43160364      14.17154833 
H      12.09404857      13.69565403      14.47468155 
H      13.10603738      21.32954567      10.77610542 
H      12.80363990      23.06032804      11.16001985 
H      12.34100990      21.79297509      12.33474566 
H      15.53778495      25.45295938       9.16603721 
H      15.49589061      23.96832204      10.18068446 
H      16.97044324      24.37667368       9.25257097 
H      13.83500333      30.63933193      19.45447692 
H      12.17692396      30.70082620      20.14214795 
H      12.70021260      29.28895038      19.15136220 
H      11.03627608      22.29112712      28.30578664 
H       9.58704617      21.23438302      28.21394557 
H      10.31253502      21.91639735      26.71133818 
H      11.31109110      10.65317140      22.34107137 
H      11.60715554      12.42707797      22.44067111 
H      12.38396799      11.31918083      23.61624123 
H      14.97855307      12.83197659      10.72318036 
H      14.79327551      13.42093131      12.41585790 
H      16.06329660      12.22888786      12.02349520 
H      17.20256533      19.97681261       7.51775540 
H      16.24900145      21.34405883       8.17189758 
H      16.13242970      19.73431774       8.94284160 
H      14.90996270      30.84831508      14.76646892 
H      13.74507113      30.43821033      16.06251519 
H      14.28152504      29.17332491      14.91879118 
H      10.41068626      25.40326309      26.96214001 
H      10.93252750      26.23178944      25.46558360 
H      11.12351313      27.04255705      27.05646904 
H      10.73649677      13.23263376      25.33857361 
H      10.71773106      14.94982589      25.83869400 
H      10.87110716      13.65381937      27.07652193 
H      14.44254906      10.64131617      13.96131211 
H      14.07039367      10.85764998      15.69426143 
H      14.87663961       9.35883864      15.13012292 
H      21.55695579      17.28238320       8.14555784 
H      22.69337045      16.50680483       9.29106042 
H      22.44770877      18.27881409       9.34498143 
H      19.69598199      30.68413164      13.34993973 
H      21.22054253      29.76536566      13.16015194 
H      20.63897857      30.19315807      14.79718650 
H      16.83624441      30.17107017      26.04124152 
H      16.46129810      28.80138209      27.13001710 
H      15.16293333      29.93755277      26.63644197 
H      14.26634935      15.87013017      30.66047868 
H      15.70731020      16.91946068      30.86034974 
H      15.81478442      15.43993895      29.85640085 
H      18.05295427       7.90487032      18.63796952 
H      19.05893315       8.19838423      20.08696953 
H      19.48634071       8.97650835      18.53792112 
H      19.69267193       8.44378934      14.30726464 
H      18.38550505       9.44480060      15.03854005 
H      19.38402136       8.36599743      16.07026487 
H      21.66263839      13.67905125      10.00059829 
H      21.18743075      11.96265300      10.19885722 
H      22.49177220      12.65248513      11.22648494 
H      21.92976978      22.11456392       7.28612250 
H      20.52793619      21.41132451       8.16101012 
H      21.89485056      20.36846004       7.67318897 
H      21.52657548      27.21744727       9.29179242 
H      22.73753108      26.87894525      10.57274833 
H      21.43340872      28.08626985      10.85360370 
H      19.43877504      32.07961418      15.98577467 
H      18.80684559      33.06035629      17.34353740 
H      17.91087100      31.60490393      16.79003539 
H      17.26612962      32.97958939      22.50030188 
H      18.65234911      32.02085837      23.11055313 
H      17.06558157      31.94943403      23.94659769 
H      15.18161965      27.60369903      29.38072921 
H      14.51841729      26.50830054      30.63394691 
H      13.96481848      26.36477897      28.92680118 
H      14.39805437      19.62842593      31.55619811 
H      13.99858173      21.30061650      32.05307880 
H      15.70758075      20.84618333      31.73163532 
H      15.13395209      11.17485059      28.74953151 
H      14.31316785      12.48798853      27.83732262 
H      15.06796419      12.83250769      29.42363004 
H      17.35393598       8.38134846      22.78619741 
H      16.53897610       8.22583460      24.37644811 
H      18.21249676       8.88223761      24.28843286 
