646
Properties=species:S:1:pos:R:3 i=102 optimized=T E=-9873.0663309578 pbc="F F F" jobid=246_80-Ag-30_1-000002-PBE
Au      21.88215296      20.17218031      20.94239170 
Au      24.76722172      20.15048083      21.85814674 
Au      20.42893503      22.68708718      20.45104273 
Au      19.69459614      20.95295831      22.73073697 
Au      19.99226723      18.13725869      21.86505230 
Au      21.15471372      23.49670219      23.17580853 
Au      20.34433128      21.78728904      25.46040892 
Au      20.67540977      18.94546374      24.62337749 
Ag      20.90630240      16.14205734      23.76021885 
Ag      21.89147994      16.11458716      20.98951691 
Au      22.72320909      16.15630808      18.17472622 
Au      23.07660856      18.90441742      17.25633373 
Au      23.31819525      21.70842932      16.36912200 
Au      22.62028382      23.47111682      18.60862215 
Au      21.84079094      25.17911672      20.88494199 
Au      23.39087651      22.69219532      21.38071684 
Au      22.62748729      20.98950462      23.68890493 
Ag      22.87313414      18.17007686      22.83532892 
Ag      23.79957868      18.14632076      20.03750790 
Au      24.10757023      20.91865536      19.13123158 
Au      20.88193094      14.01135948      19.01235351 
Au      21.81501480      14.09453354      16.19186548 
Au      22.14758044      16.88295401      15.26713746 
Au      22.38658038      19.73235997      14.38450006 
Au      22.72727982      22.57810817      13.61026209 
Au      21.98250346      24.34535796      15.86424046 
Ag      21.17260000      26.11558693      18.16262658 
Au      20.45391211      27.84160272      20.44321096 
Ag      25.43788887      22.45911880      14.54215770 
Au      24.85006963      24.27775056      16.76080836 
Au      24.02619492      25.99425818      19.01491588 
Au      23.14030232      27.71935244      21.24899937 
Au      22.50081070      26.08644221      23.66902543 
Au      21.73044645      24.36195745      25.88595889 
Ag      20.89142606      22.65597123      28.20450761 
Au      21.27691122      19.76991106      27.42656259 
Ag      21.54293546      16.99606450      26.52415723 
Au      21.78625741      14.14812021      25.63940723 
Ag      22.84239610      14.04668818      22.91382253 
Au      23.71349909      14.07542469      20.08828448 
Au      24.50883053      14.04540896      17.16634598 
Au      24.94881239      16.84179691      16.27463565 
Ag      25.18777351      19.63278391      15.42365473 
Au      23.59677299      19.00663923      25.62551608 
Au      23.74005449      16.20699483      24.72821823 
Au      24.77760562      16.08128958      21.97516622 
Au      25.58823527      16.07956277      19.13768889 
Ag      26.00743577      18.82070266      18.15176864 
Ag      26.14327275      21.65623885      17.26437697 
Au      25.57845313      23.50474778      19.51775984 
Au      24.72338075      25.21230960      21.77456862 
Au      24.10345397      23.57087119      24.15542355 
Au      23.21212179      21.86833215      26.36932399 
Ag      26.24440582      22.76005100      22.29974126 
Au      25.47607874      21.02288351      24.64916920 
Ag      25.76236932      18.13162857      23.82730138 
Ag      26.67430277      18.07292805      20.94371469 
Ag      26.94505321      20.94942854      19.99984948 
Au      27.59674306      20.16985517      22.77989234 
Au      27.57669222      15.16565521      21.34399617 
Ag      28.48696503      17.28102896      18.72158075 
Au      28.65006762      19.87524351      17.75383006 
Au      28.41073567      23.29554199      18.83666270 
Au      27.75712148      24.99793708      20.89559777 
Au      26.65579509      25.01701946      24.25843785 
Ag      25.96832110      23.44080495      26.49380078 
Au      25.68162736      20.09593155      27.51467499 
Au      25.86535128      17.43422886      26.79675389 
Ag      26.81324637      15.37670795      24.00030076 
Au      28.55733633      17.54365490      23.04459659 
Au      29.26829982      19.39920597      20.62977630 
Au      29.01058239      22.31889195      21.59604545 
Au      28.00052369      22.35194585      24.57049620 
Ag      27.74866517      19.40458740      25.53763818 
Ag      25.54043052      13.31825455      22.29746232 
Ag      26.33121063      13.26516194      19.30768225 
Au      27.18069212      15.12677824      17.05333972 
Ag      27.60033784      17.87753589      15.91676983 
Ag      27.72591882      20.75685803      15.04033935 
Ag      27.61915770      23.72808505      16.00589695 
Ag      26.87881321      25.74187757      18.16942230 
Ag      25.95386875      27.47942839      20.49979952 
Au      25.06633063      27.46311806      23.37037674 
Au      24.35336540      25.86189963      25.88534425 
Au      23.43878595      24.04426553      28.15278443 
Au      23.24397680      21.24733597      29.06704758 
Au      23.48801577      18.26531853      28.40072577 
Au      23.60319426      15.36292533      27.47996263 
Ag      24.69145331      13.62116908      25.23666540 
Au      24.29625996      11.57866773      15.37900622 
Au      24.06393510      14.86311081      14.33725883 
Au      24.25160997      17.63371471      13.49289756 
Ag      24.52994552      20.43061402      12.62300313 
Ag      25.32931191      23.34445497      11.65200238 
Au      24.20156186      25.12979848      14.08632196 
Au      23.31758715      26.84547941      16.28272910 
Ag      22.61518836      28.60218978      18.51293476 
Ag      22.40008328      30.58090140      20.91677670 
Au      21.17147343      28.60761282      23.31511938 
Au      20.27607367      26.89873325      25.45464853 
Au      19.50267609      25.19532135      27.67348653 
Au      19.33982105      23.65384883      30.59602293 
Au      19.22449264      20.49632385      29.27754477 
Ag      19.37721936      17.72593486      28.40752156 
Ag      19.67078898      14.91862537      27.51963728 
Au      20.55280373      11.86747842      27.20411225 
Au      20.96271864      12.00449868      23.75761277 
Au      21.86222374      12.00437626      21.01843501 
Au      22.68167722      12.01574417      18.19909037 
Au      29.62997646      14.20481101      23.51349972 
Au      31.35477449      18.25455135      18.04795739 
Au      30.78321302      24.91504208      19.93055647 
Au      28.65728792      25.06018585      26.64756117 
Ag      27.99801940      18.47354540      28.65005293 
Au      28.92523478      27.74064749      18.82178501 
Au      30.20750899      18.60443551      14.68429093 
Ag      27.99577048      11.84042626      21.65488073 
Ag      25.43594684      16.65743100      29.91574856 
Au      25.86771264      26.42384455      28.37615028 
Au      26.66806881      26.69882843      15.25970625 
Au      23.19084377      28.77363678      25.75975338 
Au      21.58289121      18.79777261      30.71231950 
Au      24.10094684      10.94171527      23.47853754 
Au      27.14006415      15.77521814      13.76540148 
S      29.66991503      22.98130534      26.25821237 
S      29.61144520      18.41183359      26.86634812 
S      30.67753751      16.25972038      23.08998717 
S      31.66533987      19.52803158      19.98801227 
S      31.09763287      23.63664934      21.87267763 
S      27.79987721      27.17485329      27.23525997 
S      30.63867732      26.30888329      18.03137665 
S      31.28125701      17.00268432      16.05678523 
S      28.76229082      12.06241625      23.94336967 
S      26.91118473      18.36496303      30.79634728 
S      28.01506885      26.51400044      22.81540928 
S      29.64708761      22.08970360      17.07375895 
S      29.08257475      14.94121836      19.36853079 
S      26.74490462      15.13518923      26.47545489 
S      26.21418541      22.18491842      28.67042490 
S      24.02211107      25.83370393      29.70655571 
S      27.33439229      29.31013795      19.52235480 
S      29.27236502      20.12510578      13.16797468 
S      27.39870553      11.03070978      19.47864665 
S      24.08314034      14.65326157      29.75566247 
S      22.64086484      20.81393980      31.37544316 
S      24.86976920      29.68173765      24.35568935 
S      28.18104572      25.27408316      14.12313911 
S      27.91275477      13.94165401      15.03686301 
S      24.52883898      11.20950609      25.78255138 
S      20.39986911      16.76820217      30.46878046 
S      21.42929978      28.23561300      27.23140258 
S      25.24110300      28.36964606      16.13091370 
S      26.37148687      17.42218587      12.25964181 
S      23.58226316      10.24495654      21.28245573 
S      20.28144985      10.33856607      25.43443442 
S      20.70400300      13.25025138      29.09464915 
S      18.34928034      21.62817530      31.27036464 
S      20.27701055      25.71930882      29.98451654 
S      20.95815777      30.99582721      22.80875656 
S      23.93094759      30.66951850      19.06508482 
S      24.55948224      25.63013056      11.71902497 
S      26.42576607      21.25187414      11.23586267 
S      24.17808955      12.64457609      13.28329468 
S      24.34715562      10.38319803      17.40762159 
C      31.30865975      23.28436565      25.49858204 
C      30.93234692      19.63251456      27.22952690 
C      31.70453752      16.66211205      24.55165791 
C      32.72175355      18.54961204      21.12012697 
C      32.58895165      22.60438176      21.62394943 
C      28.89774117      27.77331187      28.58423223 
C      32.14237088      27.36704838      18.08075539 
C      33.01073409      16.98862396      15.43044488 
C      30.22621584      10.94969119      24.04351471 
C      28.05252710      17.45314077      31.91920277 
C      29.75131180      26.60764210      23.39260655 
C      31.45761626      22.24817937      17.34035904 
C      30.87604177      14.78660428      19.73543944 
C      28.44769638      14.85115612      27.10438613 
C      27.92097249      22.05314407      29.33231266 
C      24.74235352      24.89725739      31.11247331 
C      28.06378506      30.04220247      21.04298802 
C      30.43086912      21.55238973      13.15426606 
C      28.90411346      11.24987703      18.44692538 
C      25.25534592      13.26178829      29.51354699 
C      24.13067972      20.34592793      32.33051174 
C      26.31168650      30.07627539      25.41271636 
C      29.85167083      26.00517999      14.32331821 
C      29.73452279      13.86374058      14.87776559 
C      26.17278085      10.46905487      26.11307842 
C      19.05675007      16.89805088      31.71824915 
C      20.45031493      29.78772172      27.29982228 
C      24.85486595      29.41547221      14.67173947 
C      25.91361418      16.45510831      10.76696209 
C      22.62054567       8.70502740      21.55986149 
C      21.52548223       9.01429536      25.68334137 
C      19.41225679      12.62605943      30.23940826 
C      19.21283380      21.09703598      32.79891920 
C      19.17843509      26.99470494      30.70950741 
C      21.91646415      32.01781303      23.99641444 
C      23.38982271      32.08436095      18.02800833 
C      26.02724985      26.69870075      11.44907380 
C      26.09553177      20.85692888       9.47240179 
C      25.78264924      12.35152425      12.44568524 
C      23.50198256       8.79396985      17.06195203 
Ag      19.00588160      20.19011188      19.98986685 
Au      16.18357753      20.16898481      19.08861124 
Au      21.16824621      20.94382354      18.18544274 
Ag      20.89210690      18.16460672      19.06871072 
Au      19.76791178      23.53764842      17.73203446 
Ag      20.52020992      21.78692617      15.46702889 
Au      20.23220103      18.97871165      16.28109759 
Ag      19.96912707      16.16045600      17.17440471 
Au      19.09052552      16.09873282      19.95703383 
Ag      18.15960507      16.09723832      22.81422290 
Ag      17.84307347      18.88641982      23.68445677 
Au      17.56915501      21.69999481      24.53363162 
Au      18.29659712      23.46791230      22.30768958 
Au      19.05855361      25.20355899      20.01765302 
Au      17.52750542      22.73037031      19.53561775 
Au      18.29832817      20.99098057      17.23826985 
Au      18.01971961      18.13799252      18.07853948 
Au      17.14505991      18.13442883      20.92034208 
Ag      16.81821798      20.95073262      21.78896567 
Au      20.03022317      14.00550404      21.90502792 
Ag      19.06932757      14.04375643      24.74277121 
Au      18.76935053      16.86119397      25.63525604 
Au      18.49955203      19.72774224      26.53877977 
Au      18.18264444      22.60493682      27.35201399 
Ag      18.89549337      24.33187161      25.05372962 
Ag      19.72079612      26.09796435      22.76588980 
Au      15.50798888      22.46946022      26.41787527 
Au      16.14739000      24.28996829      24.11248269 
Au      16.93172410      25.98686557      21.89533886 
Au      17.76875468      27.73710666      19.61807359 
Ag      18.36216828      26.12136995      17.26303137 
Au      19.12811171      24.35811561      15.04824283 
Au      20.00106609      22.59825233      12.74940814 
Ag      19.58745863      19.73225509      13.50118880 
Au      19.34451822      16.98223956      14.41017774 
Au      19.11941274      14.10837135      15.32322117 
Ag      18.10441416      13.99918901      18.07372870 
Au      17.29195401      14.05256281      20.84674842 
Au      16.36773693      14.05400946      23.76793616 
Au      15.92680722      16.82691845      24.64339681 
Au      15.71107883      19.61829952      25.48949274 
Ag      17.29015302      18.99005138      15.30559937 
Ag      17.14355609      16.19640864      16.18303518 
Ag      16.11465137      16.05792762      18.94436837 
Au      15.36534627      16.07559225      21.79509270 
Ag      14.89051089      18.84608159      22.74459380 
Au      14.72720668      21.66113945      23.63205303 
Au      15.28905067      23.51283374      21.33410845 
Ag      16.16649602      25.24741616      19.14111440 
Au      16.80986762      23.58675510      16.77994844 
Au      17.69219741      21.84107382      14.54312707 
Au      14.67683178      22.76525892      18.61601551 
Au      15.44664560      21.03690843      16.25227945 
Au      15.16322170      18.12950426      17.09391189 
Au      14.24029257      18.09816864      20.01453949 
Au      13.92276983      20.95299175      20.93618875 
Au      13.29599709      20.20606702      18.11620170 
Au      13.33259586      15.20603941      19.47086672 
Au      12.34193844      17.36241494      22.24504610 
Au      12.07171034      19.93615736      23.15212123 
Au      12.49352748      23.33404192      22.12027995 
Ag      13.15315785      25.09289436      19.99250246 
Ag      14.20715247      25.05050300      16.72785273 
Au      14.97541117      23.54852288      14.42792271 
Au      15.29825225      20.07713557      13.42522827 
Ag      15.00416687      17.37566304      14.15572518 
Au      14.13843695      15.31318911      16.82109387 
Au      12.42743327      17.51270620      17.80827616 
Au      11.60206282      19.38210465      20.22915066 
Ag      11.90895883      22.37603215      19.38813147 
Au      12.91023039      22.42398937      16.38281471 
Ag      13.19938823      19.42152792      15.37891035 
Au      15.38604943      13.29337632      18.62290648 
Au      14.69306719      13.30422160      21.57321566 
Ag      13.61939093      15.15018706      23.82062279 
Au      13.30346262      17.94856156      24.97038074 
Ag      13.15751799      20.82607117      25.87485538 
Au      13.41341893      23.76597266      24.95812128 
Au      14.06757290      25.75035948      22.72316945 
Au      15.04831089      27.56450079      20.47856694 
Au      15.76078566      27.50785496      17.57842704 
Au      16.49221743      25.91680877      15.12055049 
Au      17.53518631      24.05213621      12.71267498 
Au      17.67318701      21.09506795      11.85148040 
Au      17.33599475      18.15428834      12.58528554 
Au      17.29124593      15.25718306      13.47251841 
Au      16.32893358      13.56768694      15.78391893 
Au      16.60818198      11.58838708      25.51698427 
Au      16.85584992      14.86168837      26.54026902 
Au      16.68025066      17.64095028      27.44596554 
Ag      16.38365092      20.42279117      28.30550377 
Au      15.31901166      23.32004614      29.31584451 
Ag      16.62486715      25.14645513      26.81764454 
Ag      17.56487390      26.84271952      24.62294666 
Ag      18.32652266      28.59092039      22.37234964 
Ag      18.43281824      30.63571252      19.96914703 
Au      19.76326903      28.63697402      17.61729570 
Au      20.60115524      26.90539836      15.47301413 
Ag      21.31639810      25.17868999      13.18965831 
Au      21.44557506      23.69800226      10.33062709 
Au      21.73507612      20.51233496      11.69207762 
Ag      21.53831402      17.73076874      12.51012326 
Ag      21.21330429      14.91222786      13.41582635 
Au      20.31050851      11.83170916      13.66764804 
Au      19.92556404      11.95227389      17.12744322 
Ag      19.17997682      11.94411606      19.95981233 
Ag      18.17093088      11.99221392      22.73828983 
Au      11.20546417      14.25615619      17.39657890 
Au       9.42940595      18.28610257      22.72836208 
Au      10.15537441      24.93134085      20.86888989 
Au      12.22654057      25.05933654      14.20693365 
Au      12.85717015      18.49364994      12.18888058 
Au      11.96688738      27.71618331      22.05039310 
Au      10.61747315      18.62601850      26.08296815 
Au      12.87074287      11.68951843      19.17096716 
Au      15.50001969      16.58492347      10.81320052 
Ag      15.02695425      26.11032542      12.59654623 
Au      14.32727643      26.87604221      25.66520699 
Au      17.63875818      28.70994733      15.15371056 
Ag      19.41060379      18.88236160      10.44727232 
Au      17.00738712      10.84489252      17.66341835 
Au      13.79150216      15.71673945      27.03900528 
S      11.24160885      22.98214073      14.68355245 
S      11.35275112      18.46237814      13.98401900 
S      10.23317809      16.35758247      17.77780330 
S       9.20135186      19.56936673      20.77162818 
S       9.84725188      23.70479572      18.90073868 
S      13.05764014      27.16088249      13.57659996 
S      10.20572842      26.31490864      22.77998590 
S       9.48802210      17.03844275      24.72681027 
S      11.97148858      12.06127495      17.01517454 
S      14.15056205      18.43469908      10.21699392 
S      12.87273042      26.67992535      18.06819828 
S      11.07889413      22.11572935      23.75067962 
S      11.91528728      15.06419823      21.50221179 
S      14.03623115      15.06773242      14.37841032 
S      14.66630339      22.22251971      12.35689772 
S      16.81750098      25.63929873      11.03360604 
S      13.56520798      29.29782647      21.38246072 
S      11.51849638      20.15046558      27.62407486 
S      13.64716735      11.11166846      21.31133874 
S      16.78766370      14.65182420      11.15034229 
S      18.28362475      20.86666698       9.52160685 
S      15.98083237      29.71956380      16.50578165 
S      12.77094867      25.38974110      26.66352500 
S      12.95056343      13.86191534      25.83922695 
S      16.44639891      11.15023726      15.38093190 
S      20.68516894      16.80781896      10.37816770 
S      19.38034101      28.09662971      13.68615603 
S      15.80541451      28.58093184      24.99893130 
S      14.55795109      17.29989573      28.62357517 
S      17.57066323      10.05598785      19.81603151 
S      20.57996170      10.28024137      15.41686285 
S      20.16217718      13.28035347      11.82866779 
S      22.49177448      21.69506579       9.65924416 
S      20.50270733      25.77700205      10.87174107 
S      19.86915041      31.05361609      18.08289836 
S      16.94208108      30.61066534      21.84795598 
S      16.14859198      25.52482893      29.25451128 
S      14.41494348      21.17396035      29.65736543 
S      16.75742593      12.65111460      27.61658014 
S      16.46164152      10.33759695      23.53584489 
C       9.58565270      23.29986835      15.39472632 
C      10.03493951      19.67848082      13.60010247 
C       9.21889933      16.76613625      16.30871232 
C       8.14509043      18.63302909      19.60607964 
C       8.31348666      22.72508573      19.12482038 
C      12.03085783      27.67339518      12.13725464 
C       8.71591045      27.38241468      22.62054544 
C       7.76662465      17.06039496      25.37262225 
C      10.45518907      11.02101755      16.99347103 
C      13.02131556      17.73960906       8.94135999 
C      11.18205248      26.81569021      17.35950726 
C       9.30684215      22.20084215      23.29210687 
C      10.11898770      14.89395600      21.16930473 
C      12.26906699      14.90610325      13.91155870 
C      12.94710004      22.13100771      11.73870485 
C      16.11386406      24.56134847       9.72574812 
C      12.86685467      30.05047116      19.86177556 
C      10.35275098      21.57072922      27.60632558 
C      12.17631164      11.22346578      22.40355429 
C      15.56731113      13.29466521      11.33936743 
C      16.87608351      20.25248741       8.52293678 
C      14.54264841      30.07051788      15.42849208 
C      11.10429520      26.08564699      26.36349932 
C      11.12970269      13.89356800      26.05343004 
C      14.77472631      10.43466266      15.16596217 
C      22.02590303      17.17157550       9.17132429 
C      20.33950440      29.65354231      13.50879347 
C      16.28168682      29.37531409      26.58772195 
C      14.99913274      16.27238350      30.08018255 
C      18.62385039       8.59006730      19.46336314 
C      19.34959018       8.94771757      15.15221612 
C      21.45826285      12.72173535      10.65625720 
C      21.67369778      21.14976957       8.11093408 
C      21.60347385      27.02694032      10.10288082 
C      18.91481537      32.04971437      16.87117251 
C      17.43723447      32.00787623      22.92947978 
C      14.70823371      26.61488227      29.58080154 
C      14.71109632      20.80999256      31.43208445 
C      15.15226031      12.35999045      28.45523050 
C      17.28025343       8.73870809      23.90812517 
H      31.75651072      22.30113330      25.30735032 
H      31.92719953      23.83655917      26.21490231 
H      31.22901967      23.83451164      24.55575423 
H      31.61500595      19.65661287      26.37082784 
H      31.48377749      19.30891950      28.11947616 
H      30.52403025      20.63573868      27.38960621 
H      32.20116297      17.61787032      24.34224031 
H      32.45825597      15.87667703      24.67525770 
H      31.09430225      16.76512656      25.45533478 
H      33.70265238      18.40750196      20.65308301 
H      32.26652399      17.58312607      21.35995946 
H      32.83427875      19.13545067      22.04104605 
H      33.45680609      23.26548287      21.52121957 
H      32.49339242      21.95635238      20.74700793 
H      32.70480309      21.98357698      22.52125133 
H      29.87402011      28.01044259      28.14580439 
H      29.01480170      27.02039157      29.36836944 
H      28.44948448      28.68179101      29.00325880 
H      32.03883325      28.13543864      17.30569985 
H      33.00900041      26.73300278      17.86069060 
H      32.26663224      27.83932518      19.05904948 
H      33.00075324      16.54955144      14.42596128 
H      33.60814387      16.36263304      16.10326570 
H      33.42961473      17.99782684      15.39141926 
H      29.85867540       9.91670418      24.05754757 
H      30.76376755      11.16135307      24.97478386 
H      30.89649129      11.08912510      23.19086138 
H      28.86244520      18.13073183      32.21391047 
H      28.47874517      16.56935350      31.43623635 
H      27.49334410      17.14647935      32.81084533 
H      30.34588352      27.10276742      22.61516072 
H      30.15720608      25.61048292      23.58348590 
H      29.75924923      27.19906899      24.31603180 
H      31.96256478      21.62539177      16.59231496 
H      31.72111538      21.90545550      18.34624680 
H      31.73118449      23.30202263      17.21564871 
H      31.42046329      14.92438256      18.79367344 
H      31.06475639      13.78506677      20.14025604 
H      31.19077582      15.54070339      20.46323975 
H      28.79792836      13.89532420      26.69716488 
H      28.41060094      14.80916952      28.19943983 
H      29.11398451      15.66012473      26.78774668 
H      28.21672657      23.04547629      29.69436878 
H      28.62217875      21.72809947      28.55757231 
H      27.91333858      21.33283135      30.15928966 
H      23.90102649      24.46320649      31.66703497 
H      25.29283233      25.59420298      31.75411562 
H      25.39947646      24.09568176      30.75765871 
H      28.94045001      30.64150172      20.77480549 
H      28.33558625      29.26913673      21.77038282 
H      27.29118491      30.69103737      21.47448628 
H      31.36716588      21.25951818      12.66708631 
H      30.62779790      21.92431825      14.16536591 
H      29.94019449      22.34095067      12.56960402 
H      28.61211501      11.08036652      17.40310170 
H      29.65636020      10.50988403      18.74152953 
H      29.31096402      12.26324660      18.54487860 
H      24.67415375      12.38617682      29.19880757 
H      25.74992575      13.05462937      30.46964236 
H      25.99977263      13.49879178      28.74521721 
H      24.71003609      21.26186006      32.49829256 
H      24.74933894      19.61682462      31.79680261 
H      23.80487085      19.93292207      33.29215738 
H      27.13293088      30.36750624      24.74655003 
H      26.61666038      29.21611067      26.01693161 
H      26.04508596      30.91982615      26.05979947 
H      29.89594167      26.95715565      13.78277393 
H      30.56628187      25.30039531      13.88044950 
H      30.09687464      26.15857299      15.37962195 
H      29.98257500      13.59074807      13.84575724 
H      30.08255476      13.07910727      15.56091018 
H      30.20300493      14.81699795      15.14311403 
H      26.11895855       9.38679775      25.95200111 
H      26.40653928      10.67128796      27.16566361 
H      26.94772316      10.90926506      25.47618798 
H      18.38210988      16.04673148      31.56435610 
H      18.49395157      17.83065527      31.60810103 
H      19.49516989      16.84062002      32.72098345 
H      19.52780948      29.56888079      27.85167626 
H      20.19834384      30.14153758      26.29460549 
H      21.02862380      30.54921658      27.83562123 
H      25.75958232      29.96614754      14.38926114 
H      24.07091463      30.12022902      14.97499806 
H      24.50192939      28.80958686      13.83123059 
H      25.39405523      17.13655020      10.08225919 
H      25.25582658      15.61804530      11.02161339 
H      26.83258211      16.08667648      10.29654333 
H      22.20690719       8.39979524      20.59062675 
H      21.80339672       8.87022708      22.26929005 
H      23.29715824       7.92796471      21.93377793 
H      21.54341318       8.39120132      24.78143755 
H      21.19941820       8.41179998      26.53932911 
H      22.52035448       9.43195929      25.86867114 
H      19.74401215      11.67348608      30.66781595 
H      18.45336061      12.49278348      29.72709270 
H      19.31107811      13.36887411      31.04045176 
H      18.92057626      20.06170876      33.01010658 
H      18.87580808      21.74917527      33.61322558 
H      20.29936426      21.15790912      32.68542504 
H      19.47371204      27.95654817      30.27276225 
H      19.34080346      27.01887246      31.79328457 
H      18.12645772      26.78167425      30.48799524 
H      21.91793504      33.04697012      23.61779313 
H      22.94326211      31.65356135      24.09872886 
H      21.41766382      31.98768553      24.97199577 
H      23.93400303      32.02911063      17.07718762 
H      23.64896954      33.01968533      18.53716007 
H      22.31029809      32.05119610      17.84093467 
H      26.22653970      26.71384559      10.37081755 
H      26.90125411      26.32159363      11.98995546 
H      25.79312238      27.71304815      11.79251859 
H      26.73436238      21.48907306       8.84493157 
H      25.04391578      21.02310987       9.21393407 
H      26.35892269      19.80448967       9.31225515 
H      25.82854207      13.00229131      11.56453440 
H      25.80570737      11.30184925      12.12997487 
H      26.62431104      12.56820185      13.11085386 
H      24.18033020       8.16686238      16.47147267 
H      22.56450713       8.95240941      16.51727718 
H      23.30672431       8.31213858      18.02765996 
H       8.96366003      23.75986811      14.61842184 
H       9.63639193      23.94364888      16.27803533 
H       9.16219780      22.32801074      15.67705009 
H       9.51134167      19.36704288      12.68979924 
H      10.43424395      20.69121993      13.48347443 
H       9.33452833      19.66419801      14.44480789 
H       8.40170740      16.03948080      16.23804876 
H       9.81429733      16.76572567      15.39053061 
H       8.80504053      17.76939675      16.47004805 
H       8.09809831      19.21071008      18.67452645 
H       7.14131061      18.55141398      20.03824708 
H       8.55622247      17.64007229      19.39768680 
H       8.16116019      22.15609863      18.19888735 
H       7.46981633      23.40759215      19.27358041 
H       8.39418742      22.02689832      19.96411733 
H      12.50271761      28.55847488      11.69408429 
H      11.02721257      27.93188690      12.49344321 
H      11.96372609      26.88107859      11.38664731 
H       7.83197392      26.75914987      22.79889812 
H       8.65530968      27.83861185      21.62866586 
H       8.77822729      28.16372916      23.38705701 
H       7.14622550      16.44966237      24.70656845 
H       7.37050805      18.07837937      25.42044823 
H       7.77947534      16.61852576      26.37589507 
H       9.90113987      11.25154724      16.07619178 
H       9.82517767      11.21199720      17.86638243 
H      10.76874497       9.97061470      16.98277939 
H      13.61495356      17.53492939       8.04270493 
H      12.25980090      18.49544053       8.71678769 
H      12.54163983      16.82013871       9.28771650 
H      11.25844235      27.30191579      16.37990529 
H      10.57413186      27.42443915      18.03950077 
H      10.72166792      25.82939373      17.24948862 
H       8.96909020      23.22931954      23.46642627 
H       8.75588357      21.50171400      23.93306820 
H       9.15870943      21.93070853      22.24242711 
H       9.95435546      13.91095092      20.71157367 
H       9.77608676      15.67999257      20.48954553 
H       9.59152758      14.96703973      22.12734916 
H      12.20492687      14.99070878      12.81968995 
H      11.66548742      15.69356868      14.37172515 
H      11.91410404      13.92208924      14.23926104 
H      12.96709692      21.54246753      10.81345373 
H      12.59855600      23.15108904      11.53479481 
H      12.28349253      21.65582115      12.46596207 
H      15.54801274      25.19247130       9.03060487 
H      15.46394505      23.79009105      10.15429944 
H      16.94924388      24.08173744       9.20079915 
H      13.64794745      30.69951937      19.44624307 
H      11.99023657      30.64877569      20.13351967 
H      12.60120269      29.27935647      19.12956363 
H      10.81992092      22.36430012      28.20311405 
H       9.40570148      21.27026471      28.06743254 
H      10.18251571      21.93664593      26.58771109 
H      11.49739325      10.39685093      22.16586447 
H      11.66695337      12.18563914      22.28693841 
H      12.54085411      11.12500801      23.43380977 
H      15.08045178      13.11991663      10.37351426 
H      14.82616426      13.53634195      12.10926344 
H      16.13270204      12.40361415      11.63972226 
H      17.26572519      19.96349298       7.53936904 
H      16.14953247      21.06502965       8.40638720 
H      16.38721014      19.39580428       8.99557808 
H      14.80972187      30.87719581      14.73639521 
H      13.72453238      30.39963408      16.08082826 
H      14.22847158      29.18159926      14.87137528 
H      10.37581796      25.34495828      26.71546443 
H      10.93661352      26.28837490      25.30101809 
H      11.00380595      27.00752384      26.94778759 
H      10.71845325      13.09466132      25.42411055 
H      10.70330025      14.85403943      25.74604883 
H      10.88800384      13.69244647      27.10290187 
H      14.43577126      10.69754538      14.15647455 
H      14.06788634      10.83018802      15.90164362 
H      14.84800992       9.34497811      15.25857546 
H      21.59598456      17.21467004       8.16386730 
H      22.75728585      16.35571939       9.21761906 
H      22.52755699      18.11813206       9.39990139 
H      19.74319525      30.36830334      12.93007616 
H      21.25909382      29.41031434      12.96245484 
H      20.59446640      30.07608312      14.48608662 
H      17.08388707      30.08936990      26.36435218 
H      16.64162612      28.63955715      27.31472049 
H      15.41689448      29.91169095      26.99400222 
H      14.07641055      15.87151104      30.51563118 
H      15.49698887      16.92620557      30.80667256 
H      15.67143170      15.45517114      29.80049008 
H      17.99900312       7.79233743      19.04611181 
H      19.05318771       8.25826782      20.41679259 
H      19.43207643       8.83678709      18.76733198 
H      19.67340007       8.36018650      14.28515423 
H      18.34975650       9.35928452      14.98208887 
H      19.34186019       8.31266695      16.04599006 
H      21.57360355      13.51992350       9.91247055 
H      21.12144958      11.80389607      10.16123916 
H      22.41016353      12.54428454      11.16808542 
H      21.95825702      21.85079553       7.31764783 
H      20.58521263      21.12724896       8.22645245 
H      22.04542231      20.14754766       7.86733225 
H      21.49208906      26.98050609       9.01381658 
H      22.65027670      26.86580262      10.38336011 
H      21.26715875      28.00840430      10.45994786 
H      19.43743704      32.02516339      15.90788474 
H      18.88156209      33.08107428      17.24208404 
H      17.89889325      31.66200369      16.74719253 
H      17.12318775      32.94886932      22.46363088 
H      18.52018220      32.01834905      23.09705068 
H      16.91359058      31.88440799      23.88545558 
H      15.01765720      27.64781774      29.38128916 
H      14.42842708      26.51317680      30.63544500 
H      13.86140840      26.35606971      28.93722541 
H      14.47515278      19.74976800      31.58561642 
H      14.03650202      21.42428566      32.03909539 
H      15.75143520      21.00719843      31.71239238 
H      15.11023607      11.29988381      28.73136064 
H      14.31020080      12.61981404      27.80537722 
H      15.12757907      12.97695638      29.36112862 
H      17.42333779       8.22311607      22.95045875 
H      16.62290876       8.14088913      24.54962930 
H      18.24620930       8.89202627      24.40156149 
