646
Properties=species:S:1:pos:R:3 i=108 optimized=T E=-10243.3668526377 pbc="F F F" jobid=246_80-Ag-69_9-000009-PBE
Au      21.88183126      20.21592055      20.94113998 
Ag      24.75134598      20.22859306      21.82922189 
Ag      20.49712562      22.71449651      20.48477846 
Ag      19.72774070      20.99247237      22.75830072 
Ag      20.05047976      18.17003855      21.89095419 
Ag      21.17031068      23.53637043      23.19882481 
Ag      20.39969973      21.77904494      25.43163264 
Ag      20.73022092      18.98453580      24.63105225 
Au      20.99078354      16.16785594      23.74002527 
Au      21.90205246      16.09647476      20.93153295 
Ag      22.77933730      16.10397506      18.14810006 
Au      23.05616957      18.89145399      17.23039401 
Ag      23.34821880      21.72898662      16.35880285 
Au      22.65846663      23.50071525      18.59255079 
Au      21.88955112      25.24501596      20.92040221 
Au      23.38040026      22.71834705      21.37772740 
Ag      22.61812609      21.01421606      23.65159266 
Au      22.90599186      18.19268716      22.80331896 
Ag      23.79736832      18.15851991      20.00218191 
Au      24.09080862      20.93815917      19.09732139 
Au      20.91819600      13.98629935      19.09461495 
Ag      21.87189928      14.01090386      16.28339007 
Au      22.16041364      16.85168589      15.34293571 
Au      22.37051217      19.72134368      14.37766727 
Ag      22.68109326      22.54112559      13.58592794 
Au      21.99964524      24.33716755      15.85172370 
Ag      21.20733143      26.08508795      18.17541031 
Ag      20.50238152      27.80449228      20.46985239 
Ag      25.41601108      22.45027327      14.50319187 
Ag      24.83837005      24.24818161      16.72478291 
Ag      24.03113591      25.98814662      19.02558564 
Ag      23.25557050      27.80404538      21.32435365 
Ag      22.60734293      26.13242651      23.65520888 
Ag      21.81901532      24.34132790      25.87551603 
Ag      21.02393898      22.58758829      28.15022044 
Au      21.38546234      19.76952150      27.44049333 
Au      21.66477269      16.98147595      26.51233965 
Ag      21.88394338      14.11401953      25.61248455 
Au      22.91637317      13.98922785      22.88904208 
Ag      23.75146340      14.05408730      20.06796025 
Au      24.63878113      14.08252232      17.23447289 
Au      24.99883595      16.82325004      16.27281661 
Ag      25.14211766      19.62418624      15.39460910 
Au      23.60503492      19.00939762      25.62522723 
Ag      23.76726828      16.17166169      24.68150307 
Au      24.80766237      16.08002991      21.89674411 
Ag      25.60217024      16.10240475      19.07442154 
Ag      25.99649298      18.87861313      18.16415119 
Ag      26.14515017      21.64219204      17.24313020 
Ag      25.57999745      23.49846608      19.48633410 
Au      24.70862202      25.24860541      21.73261709 
Ag      24.07082952      23.59639999      24.13225688 
Au      23.21622550      21.85129082      26.34838700 
Ag      26.21910288      22.77260454      22.28580776 
Ag      25.45864745      21.03355887      24.59475055 
Au      25.73683066      18.21664906      23.73382380 
Ag      26.65900466      18.14408998      20.90715714 
Ag      26.94185619      20.96762825      20.00244097 
Ag      27.56169777      20.23826577      22.74579336 
Au      27.54920328      15.30639521      21.30977095 
Ag      28.44161551      17.41187342      18.69150643 
Ag      28.71325241      20.03927461      17.73688199 
Ag      28.38725574      23.23761828      18.84791912 
Ag      27.66856527      25.01780905      20.89532065 
Au      26.66731684      24.90609998      24.27698615 
Ag      25.88904495      23.36781674      26.44383027 
Ag      25.62684529      20.11811426      27.37649495 
Ag      25.80861358      17.40482508      26.59806800 
Ag      26.72578578      15.43959506      23.98826797 
Ag      28.51091295      17.56516225      23.05130654 
Ag      29.26692771      19.43121641      20.63414709 
Ag      28.96240062      22.39246757      21.57219810 
Ag      28.01600117      22.35190668      24.57931825 
Ag      27.74451764      19.35811503      25.46229849 
Ag      25.62069042      13.32490789      22.25595561 
Ag      26.40170636      13.30634740      19.34167080 
Ag      27.33977245      15.19284619      16.97463427 
Ag      27.55762719      17.99734880      15.95504498 
Au      27.67423372      20.77386028      14.98950639 
Ag      27.66088296      23.66118119      16.01797745 
Ag      26.84032309      25.67127382      18.14251747 
Ag      26.00221970      27.44789852      20.45557313 
Ag      25.29003622      27.41745994      23.40915302 
Ag      24.39362449      25.85131370      25.87064941 
Ag      23.51750898      24.07682931      28.12524334 
Ag      23.42093045      21.16425309      29.11354557 
Ag      23.61035389      18.20496592      28.39230211 
Ag      23.78114311      15.33495141      27.45255959 
Ag      24.72410170      13.51636754      25.18325934 
Au      24.37692989      11.64075515      15.37502461 
Ag      24.05770537      14.79943861      14.44188646 
Ag      24.21140318      17.59516627      13.49851699 
Ag      24.45850776      20.39704384      12.62411361 
Ag      25.31948577      23.24564697      11.59309372 
Ag      24.16642695      25.06313931      14.02801184 
Ag      23.35449294      26.75618207      16.29257592 
Ag      22.61711958      28.51825263      18.53167655 
Au      22.58977629      30.68110252      20.87920718 
Au      21.14792013      28.58273876      23.25130450 
Ag      20.36549749      26.84849560      25.45002211 
Ag      19.66905507      25.13153634      27.75426931 
Ag      19.26007329      23.50252183      30.43178278 
Au      19.30229716      20.50022590      29.23581804 
Ag      19.51278918      17.69612667      28.39272577 
Au      19.79890745      14.95362450      27.46231538 
Au      20.59241807      11.75786767      27.05023214 
Ag      21.06177232      11.97272831      23.80160500 
Ag      21.89002182      11.95749151      20.99868245 
Au      22.76074946      12.05019058      18.21718931 
Ag      29.53602240      14.51211569      23.37323846 
Au      31.32770910      18.48676402      18.22009339 
Au      30.64779954      24.93917491      20.22755839 
Ag      28.54155451      24.74933044      26.64275449 
Ag      27.81789670      18.43230135      28.56603329 
Ag      28.83236972      27.58929243      19.14583320 
Ag      30.21492980      18.83059309      15.05195554 
Au      28.04655902      11.73360100      21.90531614 
Au      25.32794425      16.68957704      30.18381643 
Ag      25.96056720      26.23598270      28.34237821 
Au      26.55281318      26.67688182      15.25895547 
Au      23.24298479      28.61549979      25.72883559 
Ag      21.57290428      18.96672332      30.55789090 
Ag      23.93983143      11.04067148      23.33111277 
Ag      26.91216004      15.81080837      13.91663324 
S      29.63512945      22.60127410      26.47243541 
S      29.46620200      18.15946227      26.83411907 
S      30.77563324      16.51906003      22.86990287 
S      31.67267626      19.90434734      20.06197275 
S      30.95562609      23.77822814      22.24938079 
S      27.95066108      27.01647164      27.23157118 
S      30.60876753      26.21715614      18.24213515 
S      31.29260243      17.07827380      16.32888157 
S      28.82686801      12.29897012      24.06448064 
S      26.63464483      18.59936357      30.67362481 
S      27.91565520      26.57265555      22.91819699 
S      29.81866255      22.23900711      17.05504527 
S      28.95301812      15.01023801      19.25585970 
S      26.61911758      15.00293331      26.44836069 
S      25.97343704      22.21467645      28.69105365 
S      24.04672356      25.87757843      29.73706277 
S      27.36424997      29.38957928      19.73624062 
S      29.42912763      20.30583546      13.32446180 
S      27.31757055      11.01207776      19.79487585 
S      24.01040778      14.77212657      29.88781679 
S      22.56620873      21.00656278      31.42255185 
S      24.91578370      29.64730171      24.41521872 
S      28.11700910      25.27575171      14.17258439 
S      28.00554347      13.89878001      14.95950855 
S      24.48665467      11.10027219      25.69852476 
S      20.39475636      16.84710925      30.57851431 
S      21.58413578      27.99628428      27.29223291 
S      25.15555403      28.44329073      15.96884864 
S      26.17038917      17.18723849      12.04981641 
S      23.35641318       9.95523376      21.23707245 
S      20.28211499      10.15621182      25.35339421 
S      20.89124298      13.22353106      28.86825857 
S      18.20562904      21.47800645      31.22129147 
S      20.41052946      25.58248841      30.10456917 
S      21.15487549      31.00045005      22.71818018 
S      24.01668318      30.55598040      19.01984501 
S      24.55785134      25.52711254      11.60901180 
S      26.42107905      21.12929230      11.31444765 
S      24.25641952      12.60671817      13.23502786 
S      24.50129700      10.49432581      17.43144388 
C      31.33077925      22.91787724      25.84291058 
C      30.86422704      19.25954656      27.28940463 
C      31.81282908      16.89703221      24.33563891 
C      32.82118632      19.00107599      21.17008239 
C      32.52660706      22.85329761      22.04473838 
C      29.06577744      27.52063766      28.61018977 
C      32.09756895      27.29860461      18.34590554 
C      33.03095825      17.07104691      15.71645008 
C      30.34353757      11.27509003      24.26861148 
C      27.79344846      18.01372391      31.98031286 
C      29.55074973      26.96325831      23.66275794 
C      31.60379231      22.57233344      17.35219486 
C      30.75009737      14.71875588      19.52153246 
C      28.24456694      14.51888968      27.16778509 
C      27.54140739      22.23264183      29.65434044 
C      24.65355094      24.90842011      31.17689347 
C      27.97648237      30.07300380      21.32828889 
C      30.48864329      21.80224471      13.37646611 
C      28.82532062      11.04259109      18.74366788 
C      25.20331233      13.37667606      29.80985092 
C      23.91928758      20.54065047      32.57251259 
C      26.28366851      30.06377970      25.56602619 
C      29.75486018      26.05797994      14.44914215 
C      29.79868505      14.04981414      14.59520686 
C      26.12642190      10.29941943      25.90388842 
C      19.04627639      17.14984938      31.79275855 
C      20.64312118      29.55454670      27.55549226 
C      24.74263822      29.29434058      14.39041515 
C      25.62622176      15.95131094      10.79944550 
C      22.26442038       8.57698800      21.77839058 
C      21.51258573       8.83688462      25.69774887 
C      19.72160654      12.69018235      30.17350102 
C      19.07089134      21.04613607      32.78380612 
C      19.36343473      26.87868003      30.87650209 
C      22.08761817      32.00044100      23.94053561 
C      23.49164474      31.92811360      17.92011986 
C      26.05106008      26.54759346      11.27903556 
C      26.16604377      20.60288289       9.57501826 
C      25.87410412      12.27003251      12.43568109 
C      23.75449743       8.84339341      17.16305362 
Ag      19.08592087      20.19930949      20.04344948 
Au      16.21924922      20.17436868      19.14335624 
Ag      21.22173755      20.97043080      18.20901174 
Ag      20.93136439      18.15427887      19.07557893 
Au      19.77929544      23.51028799      17.76921874 
Au      20.56545851      21.77397439      15.52154606 
Au      20.23508417      18.93811503      16.30742284 
Ag      20.02118760      16.11022765      17.22477884 
Ag      19.08160575      16.09607189      20.00912001 
Au      18.21628550      16.16453760      22.82810175 
Ag      17.88541072      18.92123366      23.73170566 
Ag      17.62104380      21.73187584      24.57918537 
Ag      18.29642472      23.49782997      22.34625025 
Au      19.09214223      25.17399930      20.08048704 
Ag      17.60896868      22.69593068      19.59857038 
Au      18.33478410      20.98277429      17.29597570 
Au      18.08503526      18.14661987      18.15078261 
Ag      17.18970362      18.15784177      20.96234519 
Au      16.87579611      20.95123719      21.87391204 
Ag      20.07582787      14.00006678      21.96543934 
Au      19.12949426      14.05078531      24.74211746 
Ag      18.82424999      16.88054418      25.64405380 
Ag      18.58761105      19.70832308      26.51732024 
Au      18.27039106      22.57332626      27.32067817 
Ag      18.96725841      24.30236861      25.08323140 
Au      19.74710530      26.09162039      22.79594128 
Ag      15.53999170      22.48265121      26.42141736 
Ag      16.09554891      24.29023285      24.18989391 
Ag      16.90034572      26.00020589      21.92500709 
Au      17.76460422      27.70672512      19.68470991 
Ag      18.42420382      26.08525003      17.32455586 
Ag      19.14838855      24.36582707      15.08251338 
Au      19.87127144      22.57297332      12.82471415 
Ag      19.52870367      19.76771838      13.49459388 
Ag      19.31095050      16.95817327      14.45078976 
Ag      19.14196692      14.06396913      15.39373777 
Ag      18.14196767      14.00859989      18.15795313 
Ag      17.27728270      14.07204455      20.96370700 
Ag      16.41397324      14.10372898      23.80283223 
Au      16.00250034      16.84946024      24.73609213 
Ag      15.79397036      19.65598396      25.57475895 
Au      17.37405939      18.95697398      15.31609716 
Ag      17.21552642      16.15821494      16.30422169 
Au      16.22015910      16.06128316      19.08269191 
Ag      15.42948253      16.11176816      21.92187820 
Ag      14.97362408      18.89161028      22.80958809 
Ag      14.81434378      21.69384762      23.71940401 
Au      15.41180906      23.50943112      21.42215877 
Ag      16.25187297      25.21338955      19.20399384 
Ag      16.89439070      23.53684028      16.86868149 
Ag      17.71929693      21.84065602      14.61652274 
Ag      14.74760617      22.72366708      18.68403839 
Au      15.48293983      21.00416168      16.37149580 
Ag      15.19776359      18.15490130      17.20703887 
Ag      14.30397143      18.12830663      20.04258249 
Ag      14.01175115      20.94737413      20.94253315 
Ag      13.37937367      20.19986728      18.20759292 
Au      13.43407270      15.31237175      19.64727037 
Ag      12.52197139      17.40470029      22.26890469 
Au      12.26977307      19.98949880      23.19175965 
Ag      12.63256545      23.23831689      22.10511977 
Ag      13.32374946      24.97725159      19.97471950 
Ag      14.32532911      24.96916558      16.83008146 
Ag      15.07346198      23.37104430      14.57779052 
Ag      15.36034881      20.08953496      13.58923165 
Au      15.14180028      17.39782344      14.30693390 
Au      14.19582858      15.37475781      17.02137032 
Ag      12.40229658      17.54248557      17.92250874 
Ag      11.66032900      19.41408736      20.30269136 
Ag      11.96166256      22.37034447      19.38395804 
Ag      12.96842653      22.38752610      16.39720448 
Ag      13.21315872      19.40720264      15.48083904 
Ag      15.41078254      13.28158651      18.73367196 
Ag      14.63642535      13.35288879      21.64429882 
Ag      13.70265307      15.19242856      23.99466379 
Ag      13.41610338      17.99219839      25.01751563 
Ag      13.22667363      20.81803322      25.94950424 
Ag      13.32970812      23.76154778      24.97506883 
Ag      14.08289869      25.70876255      22.71177072 
Ag      14.97685573      27.51593298      20.41194402 
Au      15.87605665      27.45631161      17.53120958 
Au      16.59533594      25.78804788      15.15156207 
Ag      17.45997390      24.16202981      12.82090252 
Ag      17.47409370      21.25420163      11.84652410 
Ag      17.37260206      18.16983617      12.53482063 
Ag      17.17496290      15.28798099      13.59868328 
Au      16.40215120      13.54076268      15.90662621 
Ag      16.76125376      11.79477693      25.72825987 
Ag      16.96534887      14.82700542      26.61479723 
Ag      16.77215911      17.64962378      27.45850189 
Ag      16.48180495      20.45253036      28.32447889 
Ag      15.54164281      23.32994418      29.30644288 
Ag      16.82107144      25.10205020      26.90413334 
Au      17.61078039      26.76709265      24.65030168 
Ag      18.31742625      28.55819373      22.40644697 
Ag      18.50642558      30.59107634      19.94556341 
Ag      19.79090509      28.61003662      17.72823007 
Ag      20.59139725      26.89547623      15.50441883 
Ag      21.29712324      25.14379451      13.23836764 
Ag      21.55198065      23.55134249      10.53584789 
Ag      21.63075896      20.50093390      11.66469341 
Ag      21.46526505      17.70937775      12.59855424 
Au      21.23045448      14.94140790      13.57766028 
Au      20.38948726      11.74033036      13.95128825 
Ag      19.95739481      11.92060920      17.27941829 
Ag      19.14073020      12.01632578      20.09751768 
Ag      18.21866523      12.01546480      22.88399689 
Ag      11.34702035      14.53602523      17.64883031 
Au       9.61469844      18.42110419      22.74104405 
Ag      10.43129215      24.85141646      20.81676627 
Ag      12.44714639      24.84160499      14.39648659 
Ag      13.07136193      18.43385861      12.42438075 
Au      11.99285769      27.64228396      22.15328068 
Ag      10.73989294      18.73128040      25.90836114 
Au      12.91469041      11.73876196      19.14454012 
Au      15.57859110      16.55153475      10.87295551 
Ag      14.99521063      26.24176866      12.73471292 
Ag      14.43913785      26.58526639      25.63873322 
Ag      17.83922772      28.54117942      15.32392728 
Au      19.30300165      18.91219132      10.28122904 
Au      17.02233316      10.80571050      17.80670967 
Ag      14.11339307      15.83374425      27.05157570 
S      11.34003557      22.71672768      14.53347650 
S      11.40074999      18.31611431      14.15699335 
S      10.10177950      16.54993058      18.12639839 
S       9.25603725      19.86765959      20.92304015 
S       9.97330951      23.74406907      18.73139946 
S      13.06358374      27.10945972      13.90363307 
S      10.31318528      26.13724787      22.86570450 
S       9.70380256      16.97180783      24.60039728 
S      11.94966928      12.26625431      17.04791732 
S      14.30002725      18.46449916      10.33404617 
S      13.01865757      26.67769663      18.13878088 
S      11.26692621      22.18609311      23.92213086 
S      12.13213241      14.99459685      21.73499148 
S      14.16581840      15.10437386      14.58065073 
S      14.97429780      22.19244592      12.31046985 
S      16.76149933      25.87063216      11.14995683 
S      13.57811549      29.26014207      21.54659863 
S      11.49736522      20.20488038      27.63794823 
S      13.83211359      11.02196370      21.18300640 
S      16.84887211      14.60546742      11.21520629 
S      18.31997624      20.92163448       9.53106093 
S      16.11097019      29.71677003      16.60958649 
S      12.77962653      25.29230779      26.85249027 
S      13.10034213      13.87491934      26.00803616 
S      16.42053019      11.11383345      15.53951614 
S      20.46342747      16.86524079      10.47933700 
S      19.68478792      28.39766907      13.74693607 
S      15.89598622      28.46049614      25.11576798 
S      14.80396856      17.24474492      28.91037073 
S      17.63135420      10.03918930      19.95119946 
S      20.62392101      10.13030855      15.64339052 
S      20.18035872      13.24150443      12.14711005 
S      22.64811372      21.59234572       9.66682033 
S      20.43969777      25.63554821      10.97311885 
S      19.93622447      31.07901829      18.07166694 
S      17.00856351      30.59074941      21.82526662 
S      16.34226911      25.59683260      29.30711820 
S      14.44788575      21.20635122      29.54248609 
S      16.81511777      12.72311361      27.94921831 
S      16.40228132      10.52524394      23.71822018 
C       9.64380372      23.06337475      15.14488312 
C      10.04003011      19.46572388      13.72189957 
C       9.06147074      16.91771065      16.65927659 
C       8.07263962      19.00234442      19.82300115 
C       8.39529627      22.83019258      18.94435268 
C      11.92669726      27.63777711      12.55103631 
C       8.76435748      27.12999571      22.77136394 
C       7.97510475      16.89357833      25.23287131 
C      10.39528819      11.28060165      17.02651252 
C      13.15437085      17.87666098       9.01784350 
C      11.32610160      26.99879672      17.49103199 
C       9.45614601      22.39552408      23.67911491 
C      10.35032266      14.62652237      21.46284524 
C      12.43777290      14.88229307      14.00164721 
C      13.41735652      22.11842388      11.32990064 
C      16.05152852      24.86852699       9.78454910 
C      12.84894589      30.08876708      20.07708170 
C      10.38865832      21.66952240      27.60819213 
C      12.40422274      10.92776442      22.33736682 
C      15.60293531      13.26708852      11.40316179 
C      16.96153682      20.42458664       8.40233031 
C      14.72712096      30.09006283      15.46752453 
C      11.15228927      26.10099833      26.58820691 
C      11.29379249      13.95323082      26.32927698 
C      14.73788767      10.41403114      15.34907492 
C      21.78430367      17.03886225       9.21024443 
C      20.57228142      29.99669805      13.94840482 
C      16.35419775      29.12720687      26.76622017 
C      15.35619116      16.03690379      30.18385382 
C      18.73793424       8.61600698      19.58570539 
C      19.35701729       8.84686910      15.30234232 
C      21.40833131      12.70365317      10.89664287 
C      21.79408699      21.20069531       8.08648155 
C      21.46904764      26.98455577      10.27562937 
C      18.93687561      32.09627386      16.91201104 
C      17.54952949      31.95734431      22.92527829 
C      14.86998116      26.64998540      29.62749886 
C      14.62713457      20.68064445      31.29226982 
C      15.17163253      12.35098571      28.68221854 
C      17.07220755       8.84539957      24.03884568 
H      31.78645619      21.95194349      25.59253815 
H      31.91901922      23.40098602      26.63135602 
H      31.31206937      23.55198764      24.95033569 
H      31.59383631      19.23063145      26.47067713 
H      31.33383037      18.88213491      28.20452386 
H      30.52318800      20.29076280      27.43413775 
H      32.27364319      17.88062524      24.18169553 
H      32.59945222      16.13875415      24.41964608 
H      31.20943471      16.91860185      25.24974881 
H      33.79032383      18.89159352      20.67138270 
H      32.41557436      18.02080663      21.44430382 
H      32.94325735      19.61115200      22.07377974 
H      33.35773977      23.56514658      21.99300296 
H      32.50568995      22.22633511      21.14731191 
H      32.64557833      22.21854305      22.93170795 
H      30.05689180      27.73171158      28.19199627 
H      29.15206628      26.73821122      29.36946784 
H      28.66380189      28.43161603      29.06862440 
H      32.01893505      28.05010550      17.55127684 
H      32.98958490      26.68322482      18.18243085 
H      32.16594009      27.79688964      19.31692607 
H      33.03277573      16.59639059      14.72791410 
H      33.64269833      16.48089793      16.40820497 
H      33.43491222      18.08421104      15.63874523 
H      30.04773568      10.22225415      24.34259670 
H      30.83180106      11.58512613      25.20013105 
H      31.03445946      11.40696126      23.43130357 
H      28.52435940      18.81117505      32.15955001 
H      28.31367097      17.10049526      31.67822459 
H      27.22140951      17.82833887      32.89671370 
H      30.03900282      27.71476064      23.03069426 
H      30.17054588      26.06112831      23.70344257 
H      29.38461220      27.36177434      24.67040445 
H      32.18013815      22.09651260      16.54992840 
H      31.90771412      22.15626610      18.31857792 
H      31.76033897      23.65673106      17.34201735 
H      31.25457534      14.86423972      18.55935582 
H      30.88847648      13.69116168      19.87713818 
H      31.13879816      15.42573259      20.26235997 
H      28.54148475      13.55854957      26.73169162 
H      28.12866369      14.42638959      28.25388669 
H      28.98982549      15.28945158      26.94093623 
H      27.64598657      23.21616442      30.12758824 
H      28.39342525      22.05105104      28.98993888 
H      27.48025067      21.44999043      30.41920641 
H      23.77075798      24.56276175      31.72907101 
H      25.25985417      25.55758892      31.81817243 
H      25.23834263      24.03804797      30.85916387 
H      28.89233280      30.64585768      21.14555230 
H      28.16599388      29.27990646      22.06015596 
H      27.19679100      30.73936322      21.71763018 
H      31.46681822      21.55619946      12.94793824 
H      30.60155878      22.16941394      14.40302240 
H      29.99929469      22.57224612      12.76713815 
H      28.49432052      10.83417721      17.71851987 
H      29.51836367      10.26156396      19.07420142 
H      29.31405865      12.02239204      18.76785024 
H      24.61899687      12.48538018      29.54832591 
H      25.67033605      13.23832342      30.79082160 
H      25.96665923      13.54085448      29.04231597 
H      24.44135543      21.45966032      32.86518723 
H      24.63113990      19.85593282      32.09870915 
H      23.48505162      20.07005860      33.46176500 
H      27.10015717      30.46887046      24.95548916 
H      26.64047826      29.18250194      26.11035643 
H      25.93940239      30.82954606      26.26968421 
H      29.78814753      27.02312036      13.93203733 
H      30.50660025      25.38514973      14.01819593 
H      29.95869043      26.19218893      15.51695639 
H      29.95894353      13.93547160      13.51734087 
H      30.31681624      13.24245281      15.12682592 
H      30.19792132      15.01261780      14.93068044 
H      26.03862769       9.23484479      25.65955811 
H      26.42185279      10.40788047      26.95449027 
H      26.88501989      10.76553769      25.26572202 
H      18.36495847      16.29103795      31.75845782 
H      18.48756055      18.06144889      31.55509212 
H      19.47641174      17.22975669      32.79769738 
H      19.75857152      29.30228244      28.15336947 
H      20.32757028      29.99939708      26.60656378 
H      21.27236148      30.25981721      28.11007084 
H      25.63938798      29.79676821      14.01094838 
H      23.97139052      30.04098731      14.61653238 
H      24.36116352      28.59144470      13.64220398 
H      25.11990834      16.48936838       9.98903219 
H      24.93901900      15.21415386      11.22927041 
H      26.50991306      15.44174944      10.39815296 
H      21.82239099       8.12389518      20.88282532 
H      21.46305619       8.92964887      22.43705890 
H      22.86805954       7.82704671      22.30246771 
H      21.48602495       8.13019167      24.85986339 
H      21.21905869       8.32167909      26.61904468 
H      22.51952539       9.25678652      25.80068287 
H      20.09335435      11.75648500      30.61084153 
H      18.71308810      12.54813174      29.76834802 
H      19.72211945      13.48276934      30.93197725 
H      18.79530103      20.02319453      33.06506371 
H      18.72695528      21.74258862      33.55746691 
H      20.15779872      21.11896286      32.66734998 
H      19.75871381      27.85181549      30.56077426 
H      19.44369832      26.79328104      31.96621053 
H      18.31527021      26.78084438      30.57206828 
H      22.17907492      33.01798545      23.54341077 
H      23.07746547      31.57245212      24.13027140 
H      21.50541375      32.01891201      24.86944675 
H      24.00314689      31.77638690      16.96160539 
H      23.81683213      32.87809894      18.35894741 
H      22.40524021      31.93073983      17.77376524 
H      26.32161409      26.43118387      10.22347581 
H      26.88796786      26.24615060      11.91787873 
H      25.80035113      27.59645569      11.47670464 
H      26.88032717      21.13959673       8.94015817 
H      25.14234748      20.80649334       9.24154194 
H      26.37025446      19.52625656       9.52993394 
H      25.89875615      12.82565579      11.49065881 
H      25.93786363      11.19578513      12.22962332 
H      26.70633274      12.58655102      13.07414357 
H      24.46685871       8.23035770      16.59866376 
H      22.80570363       8.91880726      16.62087249 
H      23.59504347       8.40627992      18.15653722 
H       9.10091127      23.64210748      14.38943380 
H       9.66927067      23.60949184      16.09433649 
H       9.13960200      22.10057183      15.29429633 
H       9.52179540      19.08169840      12.83614906 
H      10.41875284      20.47589412      13.53308471 
H       9.34067586      19.49262072      14.56672360 
H       8.31169135      16.12724161      16.54294623 
H       9.67006542      16.99759967      15.75186195 
H       8.55297495      17.87355564      16.83720482 
H       7.94918216      19.62450264      18.92781387 
H       7.10963921      18.90714658      20.33631093 
H       8.45561389      18.01723660      19.53348229 
H       8.24270911      22.21170538      18.05123265 
H       7.57405491      23.55071501      19.02853470 
H       8.42312319      22.18650359      19.82978174 
H      12.33092034      28.55074149      12.09836768 
H      10.94389811      27.85257613      12.98639487 
H      11.82310492      26.86735108      11.78166809 
H       7.92182389      26.45373017      22.95831592 
H       8.64663726      27.60077683      21.79134645 
H       8.79586201      27.90013574      23.55062847 
H       7.37268989      16.30307445      24.53332492 
H       7.54098481      17.89120648      25.34241921 
H       8.00064562      16.39377934      26.20860598 
H       9.83709399      11.55945049      16.12490669 
H       9.78151357      11.47530846      17.91043674 
H      10.65340433      10.21626502      16.98254625 
H      13.73936162      17.65462424       8.11795137 
H      12.44746099      18.68739672       8.80511145 
H      12.60522245      16.98442759       9.33116372 
H      11.42857627      27.45957048      16.50117302 
H      10.81530788      27.68461135      18.17741634 
H      10.75808934      26.06517582      17.41719859 
H       9.22764935      23.46220301      23.78846475 
H       8.93186319      21.81196714      24.44505760 
H       9.16423156      22.04209688      22.68431096 
H      10.26363066      13.59812175      21.09343013 
H       9.93276678      15.32556195      20.72967528 
H       9.83869606      14.73855720      22.42566772 
H      12.44340433      14.90503568      12.90504114 
H      11.78739486      15.67638891      14.38232032 
H      12.09747278      13.90346095      14.36098550 
H      13.50143697      21.30153917      10.60434715 
H      13.29239269      23.07585974      10.81031771 
H      12.56648750      21.94883324      11.99927067 
H      15.35358263      25.48431219       9.20658182 
H      15.54141073      23.97699108      10.16541435 
H      16.88374870      24.55593686       9.14157892 
H      13.61576511      30.77524178      19.69660255 
H      11.96229844      30.65611518      20.37936085 
H      12.59447341      29.36372525      19.29588653 
H      10.84288533      22.43147816      28.25387747 
H       9.40594274      21.38901696      28.00285536 
H      10.28831917      22.07759432      26.59640199 
H      11.74716752      10.10401530      22.03815620 
H      11.84369972      11.86783199      22.36890590 
H      12.82578836      10.72570634      23.33025382 
H      15.10381722      13.09820094      10.44288514 
H      14.86764115      13.50904686      12.17849386 
H      16.15323828      12.36446070      11.69677711 
H      17.38524167      19.92807479       7.52258123 
H      16.45224237      21.34571941       8.09306979 
H      16.24637151      19.76311282       8.90381497 
H      15.03662606      30.90976148      14.80855118 
H      13.86708289      30.40722973      16.06933480 
H      14.44586835      29.21596509      14.87037310 
H      10.38293472      25.44776642      27.01744087 
H      10.94562137      26.25004762      25.52263861 
H      11.14215768      27.06516652      27.10876599 
H      10.81920162      13.13159503      25.77932542 
H      10.86679139      14.90414010      25.99349196 
H      11.11477991      13.82310361      27.40246022 
H      14.41238115      10.63591480      14.32542472 
H      14.03086961      10.85361471      16.06029681 
H      14.79478965       9.32877828      15.49053882 
H      21.33170040      16.99767315       8.21320614 
H      22.47046696      16.19226060       9.33664951 
H      22.33778468      17.97609078       9.33252633 
H      19.95600297      30.79920854      13.52682254 
H      21.51409843      29.93353725      13.39015532 
H      20.78786822      30.21153430      15.00122347 
H      17.19026621      29.82403569      26.63317572 
H      16.64970632      28.32766446      27.45510091 
H      15.48941195      29.66661629      27.17058638 
H      14.47544273      15.52692032      30.59083991 
H      15.85376725      16.59609715      30.98515432 
H      16.05262720      15.29918099      29.76933230 
H      18.14349334       7.80390235      19.15240146 
H      19.16620710       8.28729378      20.54052832 
H      19.54634647       8.89675645      18.90212214 
H      19.66608481       8.28118936      14.41623844 
H      18.37002314       9.29279879      15.14447162 
H      19.32282397       8.17773374      16.17045731 
H      21.47285171      13.50418891      10.14972132 
H      21.03430632      11.78831638      10.42338057 
H      22.38803221      12.52297128      11.35275900 
H      22.08651587      21.95020907       7.34240732 
H      20.70627963      21.20017320       8.21274886 
H      22.12429539      20.20972475       7.75333452 
H      21.27926302      27.04275999       9.19766280 
H      22.53551202      26.81274575      10.45906549 
H      21.14934273      27.91698727      10.75664812 
H      19.47917660      32.17239922      15.96236066 
H      18.82289179      33.09612343      17.34607423 
H      17.95272674      31.64898558      16.73675324 
H      17.20012281      32.90737359      22.50468489 
H      18.63974310      31.97949833      23.03080776 
H      17.08318735      31.79910461      23.90515075 
H      15.14705633      27.69536313      29.44755247 
H      14.58252052      26.52733941      30.67788859 
H      14.03504184      26.37227107      28.97445000 
H      14.38527548      19.61149607      31.33189945 
H      13.91012562      21.24300228      31.90118023 
H      15.64502198      20.84814225      31.66043750 
H      15.13550250      11.28087018      28.91598354 
H      14.35964865      12.61322941      27.99513383 
H      15.06876854      12.92804412      29.60875467 
H      17.14518876       8.33146570      23.07273199 
H      16.37230026       8.30482421      24.68629830 
H      18.05789063       8.89182687      24.51471235 
