646
Properties=species:S:1:pos:R:3 i=84 optimized=T E=-9687.7066873637 pbc="F F F" jobid=246_80-Ag-10_2-000004-PBE
Au      21.92038997      20.20826151      20.91156134 
Au      24.80664562      20.21133282      21.81346177 
Ag      20.44529423      22.70886342      20.44311959 
Au      19.72401222      20.97854498      22.70123317 
Au      20.02666574      18.16234075      21.85949101 
Ag      21.18716946      23.52239106      23.15589407 
Au      20.39684013      21.78993797      25.39324767 
Au      20.66789062      18.96610991      24.59187133 
Ag      20.96489260      16.14481820      23.72922563 
Au      21.88811955      16.10081159      20.96598652 
Au      22.75034883      16.14715650      18.10356056 
Ag      23.06634073      18.90844297      17.21832415 
Au      23.31285873      21.69578188      16.37138737 
Au      22.58160838      23.47260159      18.59298779 
Au      21.81732986      25.18785480      20.85040164 
Au      23.37117266      22.71251627      21.35329786 
Au      22.66231793      21.00237258      23.64425672 
Au      22.92951032      18.17776052      22.81773414 
Au      23.82783939      18.16336309      19.98430152 
Ag      24.10208360      20.95945186      19.10808562 
Au      20.89604059      13.97257191      18.99209087 
Au      21.80703768      14.03437938      16.19805114 
Au      22.15374728      16.88433876      15.25951993 
Au      22.36747448      19.69915405      14.39007486 
Au      22.66863476      22.55154172      13.57632981 
Au      21.97112495      24.34485907      15.84894466 
Au      21.14162195      26.08789818      18.10369721 
Au      20.43156557      27.79324148      20.42746821 
Au      25.37638462      22.48248450      14.45739399 
Au      24.79078835      24.29072046      16.74615118 
Au      24.00086216      25.96852683      18.96651149 
Au      23.15747448      27.76556437      21.25117901 
Au      22.57626929      26.09697668      23.65334936 
Au      21.80909341      24.38555764      25.83324569 
Au      20.95625638      22.60669172      28.14484186 
Au      21.34926863      19.74523308      27.38347454 
Au      21.57594519      16.99255469      26.47941741 
Au      21.77230504      14.07996827      25.57396254 
Ag      22.85292122      13.99876362      22.82102156 
Au      23.66956304      14.04515522      20.02403367 
Au      24.48160455      14.02712849      17.12803982 
Au      24.94059763      16.85973226      16.18715598 
Au      25.16154725      19.60609146      15.39410730 
Au      23.65893355      18.99523870      25.62338294 
Au      23.77622543      16.18545079      24.68756798 
Au      24.83553430      16.07117311      21.93489645 
Au      25.59865197      16.09355497      19.07198248 
Ag      26.04888755      18.87158560      18.16949553 
Au      26.18446975      21.66859377      17.27822798 
Au      25.61115517      23.49852953      19.52564497 
Au      24.72116721      25.22499543      21.75931472 
Au      24.14358154      23.58103332      24.13654826 
Au      23.25426306      21.84860150      26.32955488 
Au      26.29221438      22.79608655      22.29050809 
Au      25.52710020      21.03172301      24.65609022 
Au      25.80016926      18.12284416      23.80731153 
Au      26.72355433      18.09794533      20.88927419 
Au      27.03362255      20.97415321      19.95785009 
Au      27.67034379      20.20217328      22.77750253 
Au      27.65716704      15.19722539      21.39116712 
Au      28.59426658      17.29680791      18.62423717 
Au      28.88612137      19.90067317      17.74767545 
Au      28.53835346      23.33854880      18.78198293 
Au      27.84646875      25.04790671      20.85815176 
Au      26.75340116      25.04897163      24.29684642 
Au      26.06042605      23.48152779      26.47485778 
Au      25.70690122      20.07280876      27.54951074 
Au      25.92860285      17.39574879      26.82555725 
Au      26.82427681      15.26920459      24.04421288 
Au      28.53801587      17.50869784      23.10608770 
Au      29.33717553      19.32346504      20.64649965 
Au      29.05623957      22.36841653      21.54471212 
Au      28.09802611      22.39353697      24.53741115 
Au      27.76566040      19.40886741      25.51831100 
Au      25.58246155      13.29405744      22.21512861 
Au      26.29831280      13.32980709      19.23369524 
Au      27.17376256      15.13919888      16.96570906 
Au      27.59288935      17.97477101      15.94529166 
Au      27.69015532      20.84716659      15.00960456 
Au      27.55146440      23.70562914      15.92869087 
Au      26.90056223      25.69758308      18.13540735 
Au      25.90456182      27.44786019      20.44526189 
Au      25.12768793      27.46256010      23.39488332 
Ag      24.42853587      25.83994892      25.88827157 
Au      23.47009502      24.02953286      28.12555186 
Au      23.30248777      21.17477319      29.03769779 
Au      23.58729005      18.20865635      28.40646105 
Au      23.65645571      15.30892286      27.38906726 
Au      24.57255990      13.55802746      25.10876434 
Au      24.36279325      11.53516079      15.41274069 
Au      24.03283103      14.81862676      14.34770216 
Ag      24.25426237      17.57983382      13.38735557 
Au      24.45355394      20.39729048      12.62218073 
Au      25.64417570      23.19394963      11.49892112 
Au      24.25497154      25.14525153      14.04204875 
Au      23.32212237      26.85966617      16.18392587 
Au      22.53323564      28.51798169      18.47890327 
Au      22.59562500      30.74285795      20.87130416 
Au      21.18768320      28.62739823      23.23744729 
Au      20.35955176      26.97537891      25.47715913 
Au      19.60022132      25.16012659      27.64805121 
Au      19.44912924      23.67778620      30.56633115 
Au      19.31468345      20.44998839      29.29853316 
Au      19.38859434      17.71034097      28.38651455 
Au      19.65057121      14.93488810      27.44039801 
Au      20.57218886      11.77702138      27.18208110 
Au      21.03426663      11.91397659      23.73553826 
Au      21.80626624      11.93151904      20.93569075 
Ag      22.68105532      11.93994484      18.11641837 
Au      29.73410394      14.23917708      23.55121632 
Au      31.53641893      18.24995307      18.15776201 
Au      30.88763739      24.96551688      20.04672389 
Au      28.76206084      25.08330873      26.68429413 
Au      28.05963549      18.46321993      28.87007401 
Au      28.95443580      27.74257174      18.92882820 
Au      30.32542967      18.64197901      14.84068619 
Au      28.07430835      11.69081925      21.67966452 
Au      25.35575597      16.50520323      30.13723403 
Au      25.94771103      26.43744252      28.38727798 
Au      26.69767164      26.81117475      15.24506880 
Ag      23.20028961      28.65969455      25.55235424 
Au      21.67079947      18.82227458      30.74472881 
Au      24.07347525      10.85158489      23.30430986 
Ag      26.89945989      15.81667557      13.89755176 
S      29.76837492      23.01223113      26.23828008 
S      29.50579931      18.54020575      27.02421599 
S      30.70710670      16.34928483      23.23094149 
S      31.74485451      19.49369752      20.13745603 
S      31.14062159      23.61404672      21.94779781 
S      27.90030852      27.19061431      27.28800999 
S      30.79731239      26.44141638      18.21436394 
S      31.51830617      17.05379273      16.13043123 
S      28.97641595      12.02904382      23.84118998 
S      26.76693801      18.27531280      30.82877586 
S      28.07024570      26.51452721      22.82761195 
S      29.91263713      22.07718661      17.18940826 
S      29.14235907      15.04251746      19.43731915 
S      26.88944065      15.14684087      26.49860969 
S      26.23922798      22.23069866      28.59735775 
S      24.05782755      25.84505028      29.64753238 
S      27.29150687      29.26286313      19.60242992 
S      29.36132374      20.19192691      13.35618875 
S      27.32055697      11.13335300      19.52490354 
S      24.03003585      14.61346820      29.69329258 
S      22.72376403      20.84305563      31.38269676 
S      25.03477971      29.70305320      24.31178612 
S      28.27358122      25.33930784      14.26607342 
S      27.95269103      13.89944065      15.04104777 
S      24.58036493      11.17181562      25.59524731 
S      20.41502404      16.84404878      30.45508704 
S      21.40363088      28.40133258      27.17469472 
S      25.15565752      28.46999922      15.90018047 
S      26.23396960      17.13479830      11.95728380 
S      23.48439978      10.15639814      21.12816034 
S      20.39373154      10.22539975      25.42767212 
S      20.62569736      13.28291078      28.98827191 
S      18.46749233      21.65870773      31.26688996 
S      20.32288043      25.76502820      29.92010031 
S      21.24004095      31.04699349      22.76527285 
S      23.86161702      30.55260810      18.89796645 
S      24.82824829      25.39285255      11.65781525 
S      26.38249198      20.97477769      11.22155772 
S      24.25289687      12.59649392      13.31296625 
S      24.41976844      10.27276093      17.39079787 
C      31.42664457      23.31786596      25.52546627 
C      30.82683582      19.75934943      27.37120099 
C      31.66251626      16.77919502      24.73235463 
C      32.79441888      18.55050423      21.30372053 
C      32.64583358      22.59282592      21.74113875 
C      28.96152076      27.78585919      28.66691381 
C      32.23541594      27.56854106      18.41862079 
C      33.23408492      17.17105784      15.47969893 
C      30.49545545      10.99315628      23.84463111 
C      27.87294578      17.49213786      32.07124252 
C      29.79005449      26.57959460      23.45426049 
C      31.65769531      22.17323360      17.73705575 
C      30.91422987      15.01610849      19.90228871 
C      28.64376485      15.05738306      27.01567504 
C      27.96099000      22.15497269      29.21781811 
C      24.74992859      24.91487886      31.07247053 
C      27.94305833      30.00717636      21.14863555 
C      30.51281845      21.62130883      13.37194320 
C      28.81078824      11.25892143      18.46013755 
C      25.23768499      13.24447900      29.49692677 
C      24.18319563      20.41143972      32.39852104 
C      26.41407948      30.04702879      25.46660071 
C      29.94359655      25.98972721      14.63608350 
C      29.76572155      14.06080755      14.84215190 
C      26.27349539      10.53620230      25.87499796 
C      19.08197632      17.01077015      31.70782211 
C      20.49200240      29.99214334      27.05384974 
C      24.75328604      29.32077525      14.32294271 
C      25.68189159      15.87955727      10.73208712 
C      22.48198984       8.64488619      21.41906896 
C      21.65898642       8.92992322      25.71205284 
C      19.32862522      12.71432363      30.15130968 
C      19.31643259      21.15919297      32.81390537 
C      19.16852773      27.02797961      30.57444466 
C      22.21419931      32.03347422      23.96615293 
C      23.26420035      31.89164937      17.79789856 
C      26.25574195      26.51206175      11.39081302 
C      25.97146842      20.50803621       9.49864798 
C      25.86600843      12.30339344      12.49123955 
C      23.60593393       8.68646960      16.95385792 
Au      19.00596938      20.20564045      19.96698588 
Au      16.07498965      20.18833758      19.05990119 
Au      21.18362418      20.97199005      18.17850407 
Au      20.92587279      18.18649999      19.02932405 
Ag      19.71746261      23.51660863      17.73813925 
Au      20.49532945      21.77691300      15.49046855 
Ag      20.19311158      18.99087499      16.27188857 
Au      19.97354780      16.19545692      17.15735075 
Au      19.06501726      16.13667533      19.94040030 
Au      18.21321391      16.12820378      22.76580813 
Ag      17.83756204      18.90168014      23.65249333 
Au      17.60165538      21.70098307      24.54911612 
Au      18.32972489      23.47760690      22.29423079 
Ag      19.02865256      25.21283736      20.02257608 
Au      17.53797253      22.71219281      19.54949635 
Au      18.23854971      21.00820567      17.23119871 
Au      17.98186545      18.19545896      18.06305708 
Au      17.09357705      18.16543149      20.87169677 
Au      16.80498681      20.96151213      21.78671182 
Au      20.07027227      13.99259676      21.87109425 
Au      19.09173484      14.04242616      24.68287078 
Au      18.74181455      16.86785546      25.59887549 
Au      18.52088165      19.68662934      26.53045601 
Au      18.24597956      22.53026543      27.34226209 
Au      18.94573032      24.34750262      25.04477943 
Au      19.75426522      26.09153560      22.77977471 
Au      15.55721187      22.44525121      26.48628706 
Au      16.12434049      24.27068774      24.16003563 
Au      16.90843340      25.95488133      21.93708626 
Au      17.71547160      27.77718213      19.63915989 
Au      18.33298493      26.08446066      17.26466483 
Au      19.09219426      24.36413333      15.05663149 
Au      19.95703419      22.59528620      12.75471080 
Ag      19.55660774      19.79289108      13.50119578 
Au      19.30858652      17.03491308      14.37731644 
Au      19.13525376      14.12469537      15.26188387 
Au      18.10642784      14.02851475      18.04239572 
Au      17.26691007      14.05688939      20.80432212 
Au      16.38702473      14.04655202      23.72266511 
Au      15.97169078      16.83404338      24.63871863 
Au      15.77475290      19.60561538      25.54798842 
Au      17.24181590      19.01818232      15.28279985 
Au      17.11909550      16.21673665      16.14442056 
Au      16.09495365      16.08285942      18.92543148 
Au      15.37100881      16.08285846      21.78854977 
Au      14.89045127      18.84771515      22.70724346 
Au      14.71458066      21.62256063      23.66247503 
Au      15.25644141      23.47972603      21.39787183 
Au      16.16952786      25.20422822      19.19307640 
Au      16.77521981      23.57028464      16.79195649 
Ag      17.64905693      21.86041912      14.56123871 
Au      14.61241742      22.77257575      18.61789103 
Au      15.37846747      21.03662438      16.25534208 
Au      15.08200178      18.13493882      17.10880256 
Ag      14.13707809      18.06428825      19.98850107 
Au      13.85610714      20.93092973      20.94067377 
Au      13.18599793      20.16736829      18.14521364 
Au      13.31606110      15.19898989      19.48942765 
Au      12.31633188      17.37622282      22.27468899 
Au      12.02139380      19.93171084      23.24416003 
Au      12.36203052      23.32560997      22.16472057 
Au      13.04680054      25.02456041      20.07664072 
Au      14.15249796      25.03701432      16.62907975 
Au      14.89646604      23.48733502      14.44064360 
Au      15.22605218      20.09816699      13.36344964 
Au      14.95502851      17.41915837      14.03996097 
Au      14.13021470      15.29725400      16.82553788 
Au      12.35762350      17.48111587      17.74213724 
Au      11.50485396      19.43685074      20.31518704 
Au      11.84514004      22.34886479      19.39859058 
Au      12.82747176      22.39952686      16.37484503 
Au      13.14625435      19.42773349      15.37944738 
Au      15.36524796      13.27729163      18.59296411 
Au      14.65012544      13.32980674      21.57004884 
Ag      13.65511224      15.16056436      23.81784401 
Au      13.36386458      17.94050080      24.97600046 
Au      13.23187043      20.83694947      25.98328793 
Au      13.39355996      23.67829539      24.99772235 
Au      14.00468495      25.69521653      22.78958205 
Au      14.98162305      27.44338105      20.49703243 
Au      15.74308093      27.42658421      17.56193637 
Au      16.49587866      25.86273552      15.02756000 
Au      17.50667064      24.06385558      12.72420900 
Au      17.61925816      21.19567965      11.85574225 
Au      17.35235635      18.25905212      12.50324251 
Au      17.23397299      15.31428843      13.43454632 
Au      16.34535096      13.56864013      15.72965844 
Au      16.56562009      11.56166312      25.49314171 
Au      16.79099293      14.81990257      26.51123086 
Ag      16.66205387      17.57070356      27.45463933 
Ag      16.46305992      20.38961872      28.36352638 
Au      15.30750649      23.16239166      29.41710930 
Au      16.68017635      25.12353998      26.85358175 
Au      17.58768293      26.84347752      24.70470490 
Au      18.33250092      28.51516980      22.39639563 
Au      18.30999008      30.75611407      20.00969853 
Au      19.65026922      28.63150513      17.60939877 
Au      20.55982702      26.95212482      15.42540561 
Au      21.34276019      25.15848976      13.24045797 
Au      21.43049790      23.70818383      10.31313887 
Au      21.66917264      20.48139161      11.59957008 
Au      21.48413153      17.76161548      12.51926895 
Au      21.21803656      14.97082499      13.40124113 
Au      20.36812053      11.82625035      13.67974097 
Au      19.83564954      11.92636614      17.09998768 
Au      19.13676280      11.89512235      19.90147831 
Au      18.25302816      12.00116795      22.70090676 
Ag      11.32922357      14.33556963      17.38781440 
Au       9.35784571      18.22551986      22.85663462 
Au      10.00692916      24.94186903      20.87549041 
Au      12.15488699      25.07770722      14.22919349 
Au      12.76780569      18.45570611      12.03326000 
Au      11.92460721      27.72498399      22.01336704 
Ag      10.74076482      18.78056685      25.93540666 
Au      12.83505549      11.72112938      19.11543225 
Ag      15.45502324      16.53968631      11.05472196 
Au      14.97557830      26.41379980      12.49981506 
Au      14.24150324      26.80416677      25.65851227 
Au      17.57879931      28.76432614      15.16025581 
Au      19.24085047      18.88679583      10.15098368 
Au      16.84465653      10.81408639      17.51459063 
Au      13.80107492      15.75061650      27.04523088 
S      11.14922928      23.00812420      14.68362617 
S      11.36722997      18.56255176      13.91370609 
S      10.15530791      16.40689800      17.76194098 
S       9.10077181      19.46615494      20.88243288 
S       9.76642925      23.59257814      18.97227529 
S      13.02538907      27.17347743      13.60436653 
S      10.08074077      26.41596675      22.70981660 
S       9.40944012      17.03485708      24.87892524 
S      11.94292718      12.04128056      16.95231307 
S      14.01722142      18.24159809      10.06043218 
S      12.82333334      26.48450248      18.10532776 
S      10.96923213      22.10263956      23.77069834 
S      11.86504108      15.10473914      21.49032013 
S      13.96618868      15.17679138      14.38061994 
S      14.69956995      22.25362833      12.31886506 
S      16.81518457      25.82072919      11.16409589 
S      13.58912522      29.25106142      21.35812702 
S      11.53022428      20.32605907      27.62940748 
S      13.58558832      11.15496579      21.27578531 
S      16.75387338      14.48984113      11.20768235 
S      18.13606602      20.86736000       9.47437169 
S      15.88476238      29.64336787      16.56113739 
S      12.67714997      25.32548437      26.64299908 
S      12.96470894      13.89330684      25.83324871 
S      16.34321746      11.18302435      15.23193300 
S      20.52505591      16.92414069      10.41634016 
S      19.36906210      28.25456936      13.71296552 
S      15.77602453      28.47403354      25.00731273 
S      14.49951643      17.32832684      28.66434267 
S      17.46005029      10.10995887      19.68090577 
S      20.58306002      10.27910624      15.43876743 
S      20.28635167      13.30311934      11.84743871 
S      22.41078409      21.70453501       9.58199694 
S      20.59338874      25.80082811      10.99020780 
S      19.66573979      31.04210836      18.11182403 
S      17.03285363      30.57152460      21.97763584 
S      16.13278975      25.36117362      29.23795537 
S      14.49957618      20.99224342      29.80960895 
S      16.65851982      12.61038375      27.59489715 
S      16.55591389      10.38706076      23.45424461 
C       9.48970764      23.31455059      15.39296780 
C      10.04450795      19.78218049      13.57623726 
C       9.16731384      16.86512867      16.28776598 
C       8.04818987      18.50086517      19.73821096 
C       8.27950854      22.54543089      19.17992366 
C      11.95007365      27.75977863      12.23292109 
C       8.64129931      27.53902166      22.49317159 
C       7.72555042      17.21526088      25.59904038 
C      10.39113009      11.05228594      16.96170795 
C      12.93721501      17.31905004       8.89045440 
C      11.10988540      26.54292430      17.46203847 
C       9.23188892      22.18410365      23.19848247 
C      10.07307416      14.96394244      21.12616160 
C      12.18805622      15.10754047      13.94697098 
C      12.96761508      22.16589423      11.72906154 
C      16.08433224      24.85506817       9.78420272 
C      12.93772268      30.01249869      19.81966175 
C      10.43744089      21.79854196      27.55194106 
C      12.09922066      11.28679310      22.34469717 
C      15.55251171      13.13636925      11.51657364 
C      16.66110024      20.35787754       8.51747554 
C      14.42945693      30.00768616      15.51359727 
C      11.00206044      25.96042269      26.27067773 
C      11.14410513      13.90951427      26.04758065 
C      14.65342654      10.54815652      14.93123972 
C      21.87603249      17.14304838       9.19114193 
C      20.30850297      29.83071658      13.63307978 
C      16.18992165      29.30541239      26.59191601 
C      14.90105279      16.27963549      30.12035060 
C      18.46349538       8.60363970      19.36894187 
C      19.33487667       8.96655124      15.15169599 
C      21.62317822      12.75550150      10.71953804 
C      21.54031661      21.20832684       8.04652787 
C      21.77081940      27.03436046      10.31719428 
C      18.69636265      32.03368272      16.91192977 
C      17.63816052      31.89815540      23.08815280 
C      14.70690758      26.47934499      29.52203869 
C      14.90395080      20.65004707      31.56694472 
C      15.04749427      12.31172407      28.41639866 
C      17.37929060       8.78681301      23.80213686 
H      31.86618617      22.33737406      25.30309463 
H      32.03672550      23.83115827      26.27721060 
H      31.37631922      23.90623010      24.60414292 
H      31.47564334      19.78978618      26.48684110 
H      31.40174583      19.40907534      28.23583879 
H      30.42574677      20.76037007      27.55670716 
H      32.09596598      17.77296313      24.56340504 
H      32.46650657      16.04442517      24.85275773 
H      31.03296220      16.80986416      25.62671238 
H      33.79683928      18.45918781      20.87039086 
H      32.37898635      17.56189952      21.52169324 
H      32.84753986      19.13228946      22.23250730 
H      33.51055958      23.26250352      21.67332822 
H      32.58882269      21.94793932      20.85900397 
H      32.73519999      21.96753654      22.63835862 
H      29.94678057      28.02611068      28.25077486 
H      29.06399560      27.03005533      29.45024741 
H      28.50244364      28.69199408      29.07919113 
H      32.14547622      28.36624663      17.67201634 
H      33.14728479      26.98893493      18.23384000 
H      32.26636296      28.00060801      19.42248912 
H      33.23605595      16.76103089      14.46296058 
H      33.88094963      16.56508514      16.12465949 
H      33.58824930      18.20527807      15.46434483 
H      30.18503387       9.94193136      23.82567769 
H      31.04404056      11.20121733      24.77050753 
H      31.12923225      11.20909877      22.98024842 
H      28.64544248      18.22104663      32.34235890 
H      28.33943975      16.58529645      31.67702313 
H      27.26837647      17.24752012      32.95242897 
H      30.41320995      27.05606813      22.68738010 
H      30.17214341      25.57730019      23.66521700 
H      29.78592673      27.17913561      24.37239803 
H      32.23995444      21.46231559      17.13789348 
H      31.75271800      21.92216691      18.79669365 
H      32.00650722      23.19826969      17.56318428 
H      31.49823887      15.02537176      18.97413715 
H      31.10490827      14.09507978      20.46690642 
H      31.17546944      15.88316008      20.51480555 
H      29.01928859      14.06322381      26.74509710 
H      28.68507345      15.20124056      28.10239654 
H      29.24085300      15.82806868      26.52138528 
H      28.26728787      23.17089672      29.49594890 
H      28.63889078      21.76460453      28.45436536 
H      27.96929040      21.49768964      30.09557115 
H      23.89662446      24.48171133      31.60911971 
H      25.28530029      25.61410059      31.72426176 
H      25.41540698      24.11271772      30.73479933 
H      28.76543743      30.68416805      20.89182029 
H      28.28186295      29.23315897      21.84596320 
H      27.11806586      30.57029727      21.60297651 
H      31.43887350      21.33274959      12.86229905 
H      30.72104856      21.94872548      14.39649752 
H      30.01913874      22.43191263      12.82138660 
H      28.46323738      11.19494844      17.42128780 
H      29.47651925      10.41869920      18.68687686 
H      29.32580332      12.21322849      18.61366672 
H      24.67685380      12.37804152      29.12462580 
H      25.67201077      13.01620015      30.47668369 
H      26.02157425      13.51006076      28.77922056 
H      24.73922358      21.33982954      32.57739025 
H      24.83101245      19.68891909      31.89260147 
H      23.83209003      20.00247721      33.35288508 
H      27.32356691      30.21086239      24.87645018 
H      26.58085245      29.21916518      26.16171143 
H      26.16875014      30.95902691      26.02373052 
H      30.09327591      26.90824863      14.05696275 
H      30.66629100      25.22966977      14.31489643 
H      30.07374939      26.19036337      15.70414639 
H      30.02968532      13.66386937      13.85442474 
H      30.25732882      13.46535757      15.62034946 
H      30.09348043      15.10105288      14.92318069 
H      26.25130415       9.44359949      25.79022184 
H      26.56208604      10.82082283      26.89421428 
H      26.98871343      10.95649228      25.16106353 
H      18.35777393      16.20720964      31.52537914 
H      18.57931469      17.97984754      31.62594477 
H      19.52025981      16.89370789      32.70569600 
H      19.54334278      29.88407016      27.59342253 
H      20.28713389      30.25559276      26.01079063 
H      21.09411678      30.77654271      27.52760673 
H      25.63083912      29.89302427      14.00031053 
H      23.91830736      30.00393886      14.52161550 
H      24.46265462      28.60404784      13.54836170 
H      25.22442234      16.40806764       9.88674175 
H      24.94828765      15.19081888      11.16449380 
H      26.55303952      15.31749472      10.37576406 
H      22.03292762       8.35912047      20.45990955 
H      21.69170499       8.82860513      22.15398301 
H      23.14740757       7.84680861      21.76817509 
H      21.71051696       8.30546444      24.81229730 
H      21.33016363       8.32257621      26.56349011 
H      22.64074557       9.36896286      25.91391751 
H      19.68518200      11.80469164      30.64855789 
H      18.38651591      12.51548106      29.62897272 
H      19.19143238      13.50895471      30.89489557 
H      19.00650076      20.13559341      33.05515131 
H      18.98756527      21.84030409      33.60754755 
H      20.40423996      21.19947092      32.70253363 
H      19.41588676      27.97375285      30.07689356 
H      19.33480551      27.12365697      31.65380212 
H      18.12701076      26.75301117      30.37475051 
H      22.28308680      33.05543687      23.57525695 
H      23.21476326      31.61334470      24.10993609 
H      21.67160509      32.04085558      24.91881724 
H      23.67243362      31.69595643      16.79877728 
H      23.65393192      32.84565767      18.17181510 
H      22.16962149      31.91844534      17.76196307 
H      26.52716849      26.45688626      10.33006253 
H      27.10734950      26.22978804      12.01744028 
H      25.93724069      27.53183468      11.63708410 
H      26.70734841      20.97138670       8.83102575 
H      24.95999310      20.83069154       9.22879095 
H      26.05355843      19.41560337       9.44050808 
H      25.89832795      12.91249209      11.58040473 
H      25.91267437      11.24088161      12.22519315 
H      26.70102692      12.56852941      13.14762332 
H      24.28286920       8.09896298      16.32335565 
H      22.65831226       8.85440842      16.43045995 
H      23.42522005       8.14778910      17.89227188 
H       8.88333179      23.83191902      14.64099591 
H       9.53706377      23.89895652      16.31683687 
H       9.04762018      22.33387782      15.60932374 
H       9.43933546      19.41027629      12.74166354 
H      10.44687824      20.77296841      13.34507083 
H       9.42506740      19.84506967      14.47962541 
H       8.36395154      16.12911833      16.16820484 
H       9.77933122      16.90650147      15.38129106 
H       8.73054077      17.85497509      16.46976525 
H       7.92106588      19.10400878      18.83044229 
H       7.07352053      18.34426046      20.21363831 
H       8.50928567      17.54452190      19.47179475 
H       8.19957977      21.92183258      18.28062934 
H       7.40319078      23.19925539      19.25250384 
H       8.34995530      21.89811456      20.05966950 
H      12.40767329      28.66170102      11.80986513 
H      10.96835775      28.00494568      12.65442688 
H      11.84162272      26.99850908      11.45565025 
H       7.72963141      26.95679622      22.67048193 
H       8.61755876      27.97053573      21.48887172 
H       8.72261578      28.33725761      23.24017268 
H       7.02283140      16.61772883      25.00728189 
H       7.40203075      18.25970660      25.61092698 
H       7.76144415      16.83056499      26.62525560 
H       9.85848799      11.25918943      16.02587814 
H       9.75264730      11.31015794      17.81114469 
H      10.65373222       9.98911255      17.00639027 
H      13.54841313      17.04390630       8.02264285 
H      12.12098369      17.97680602       8.57084954 
H      12.52467770      16.41568796       9.34808067 
H      11.12052910      27.14602711      16.54626022 
H      10.47702668      27.01303336      18.22486481 
H      10.73595802      25.53955192      17.24256328 
H       8.87644486      23.20866307      23.36151233 
H       8.64369879      21.47471484      23.79357844 
H       9.15170177      21.92547820      22.13959827 
H       9.89094857      13.96236553      20.71772165 
H       9.76493893      15.72214431      20.40008910 
H       9.52877357      15.10057921      22.06817062 
H      12.08962241      15.29995716      12.87134483 
H      11.61445953      15.85407118      14.50319968 
H      11.83026285      14.09870383      14.18807245 
H      12.95296423      21.51396280      10.84724391 
H      12.64617961      23.18099707      11.46525490 
H      12.30854394      21.76016485      12.50100024 
H      15.51849085      25.53536305       9.13807037 
H      15.43868169      24.05465343      10.16193022 
H      16.92084034      24.41698491       9.22550984 
H      13.75627562      30.60094499      19.38648810 
H      12.10078533      30.67015362      20.07971201 
H      12.61929561      29.24624941      19.10450958 
H      10.93693759      22.61463121      28.08854499 
H       9.49208389      21.55091900      28.04865791 
H      10.25245083      22.10281289      26.51548862 
H      11.41471220      10.46767033      22.09737436 
H      11.60296504      12.25465881      22.21726404 
H      12.44326292      11.18779670      23.38188769 
H      15.06964187      12.88269758      10.56562359 
H      14.80019477      13.43392203      12.25551458 
H      16.11063048      12.27006406      11.89258332 
H      16.99350072      19.91809235       7.57021627 
H      16.07667693      21.26429056       8.31746284 
H      16.04360090      19.64226402       9.06940179 
H      14.67082889      30.86382405      14.87309313 
H      13.60376289      30.27159959      16.18569303 
H      14.14303523      29.14631678      14.90216396 
H      10.28637187      25.19353282      26.59135305 
H      10.87092437      26.15999150      25.20272335 
H      10.84410105      26.87763695      26.84963345 
H      10.73755388      13.11679496      25.40745348 
H      10.70753439      14.87031350      25.75550766 
H      10.90525797      13.69080600      27.09430324 
H      14.36214395      10.86828333      13.92340603 
H      13.93521226      10.93510855      15.66164565 
H      14.68567755       9.45337022      14.97491434 
H      21.45285475      17.05745698       8.18365750 
H      22.60263788      16.33806480       9.35694731 
H      22.37032633      18.11208735       9.31537383 
H      19.71653559      30.56462364      13.07407789 
H      21.24535490      29.62764993      13.09966745 
H      20.53409975      30.20925000      14.63520385 
H      17.01944440      29.99527763      26.39333505 
H      16.49274888      28.57990627      27.35357936 
H      15.31311381      29.86900393      26.93123018 
H      13.97492280      15.85406488      30.52296175 
H      15.36261948      16.92926633      30.87447086 
H      15.59827380      15.47784222      29.85660167 
H      17.79751378       7.80506251      19.02193057 
H      18.92553224       8.31296851      20.32045908 
H      19.24501422       8.79383060      18.62646441 
H      19.67351922       8.36788936      14.29796121 
H      18.34739054       9.39300918      14.95051695 
H      19.29165662       8.33760636      16.04862637 
H      21.77032027      13.55308580       9.98111385 
H      21.29155157      11.84225659      10.21159999 
H      22.55376017      12.56636046      11.26612813 
H      21.84587046      21.89990642       7.25262224 
H      20.45394670      21.23298439       8.17592578 
H      21.85955382      20.19095650       7.79134776 
H      21.60115522      27.11922910       9.23743993 
H      22.80801119      26.74227750      10.51491026 
H      21.54718153      27.99363779      10.79971477 
H      19.23101913      32.02555669      15.95482081 
H      18.64357982      33.05925672      17.29577854 
H      17.69038233      31.62507514      16.77684398 
H      17.26023648      32.85837344      22.71792909 
H      18.73283552      31.91402378      23.12879117 
H      17.22342342      31.70080702      24.08424434 
H      15.01896243      27.49940273      29.26887564 
H      14.45040610      26.42600419      30.58660773 
H      13.84694971      26.19318019      28.90884563 
H      14.73859298      19.57815849      31.73187350 
H      14.22416461      21.22400115      32.20686498 
H      15.94315112      20.90857707      31.79760761 
H      15.01257612      11.25457282      28.70448840 
H      14.21135332      12.55705627      27.75347733 
H      15.00647015      12.94004665      29.31399120 
H      17.58357462       8.31110418      22.83513466 
H      16.68716604       8.16176841      24.37851014 
H      18.31132821       8.93149269      24.35962649 
