646
Properties=species:S:1:pos:R:3 i=94 optimized=T E=-9873.0246822326 pbc="F F F" jobid=246_80-Ag-30_1-000003-PBE
Au      21.86664110      20.19829032      20.92020651 
Au      24.75478006      20.14018327      21.86976479 
Ag      20.44368650      22.68605888      20.47437712 
Ag      19.71451105      20.96789792      22.71915699 
Au      19.98515193      18.19042865      21.85212159 
Au      21.13402973      23.49018502      23.17074908 
Au      20.39352839      21.77171578      25.44085433 
Au      20.67245116      18.98859005      24.65101005 
Au      20.93737253      16.14179179      23.79133716 
Au      21.81363915      16.11670646      20.96106800 
Au      22.72668353      16.12444754      18.12578915 
Ag      23.07205408      18.90760540      17.25522801 
Ag      23.36795668      21.71075641      16.34860853 
Au      22.65973928      23.46265659      18.57674907 
Au      21.84715872      25.17766875      20.88436784 
Au      23.35112111      22.70437092      21.38501871 
Ag      22.61956941      20.99828158      23.67345240 
Au      22.87938784      18.16349074      22.86783647 
Au      23.77572172      18.13685953      20.02323697 
Au      24.07024194      20.94532781      19.11994158 
Au      20.82339029      13.99232719      18.97731634 
Ag      21.80620833      13.99962190      16.15382846 
Ag      22.15003794      16.86932718      15.32512013 
Au      22.37690656      19.70656872      14.42106154 
Au      22.72930825      22.55227483      13.58413740 
Au      22.04766652      24.32173222      15.85368198 
Au      21.17768454      26.07552298      18.15742623 
Au      20.43292249      27.78239510      20.50414258 
Ag      25.46509000      22.46762875      14.47072265 
Ag      24.90145845      24.28573069      16.72055331 
Au      24.04553961      25.96518945      18.99350197 
Au      23.15485818      27.77045275      21.26728861 
Au      22.51968959      26.09415158      23.65897851 
Au      21.77902538      24.32479772      25.86228226 
Ag      20.94061973      22.60739365      28.19746089 
Ag      21.33748121      19.78677223      27.42681328 
Au      21.59764689      16.97196618      26.52168650 
Ag      21.79992306      14.07819877      25.67246191 
Au      22.79102835      14.07602780      22.88693197 
Au      23.62616639      14.06592265      20.06741765 
Au      24.47933097      14.02016961      17.18030365 
Au      24.91626863      16.82420505      16.25418949 
Au      25.17913285      19.60348120      15.40817148 
Au      23.63505461      19.02495635      25.60849893 
Ag      23.78893559      16.21125473      24.76261116 
Ag      24.79059812      16.09487419      21.95538940 
Au      25.55616606      16.09256507      19.12307281 
Ag      26.01989264      18.85312997      18.17851641 
Au      26.13528225      21.67878874      17.25465984 
Au      25.62824626      23.54254868      19.50223011 
Au      24.74319163      25.22848347      21.74644229 
Ag      24.08543991      23.58478877      24.11652586 
Ag      23.23831052      21.84225860      26.34652231 
Au      26.20074928      22.74762854      22.29973854 
Au      25.46812697      21.06345177      24.64117516 
Ag      25.79654273      18.14594050      23.82070011 
Au      26.70531730      18.06169983      20.94390704 
Au      26.96662974      20.96507048      19.99087750 
Au      27.64490667      20.20668215      22.79772710 
Au      27.65044874      15.20477970      21.41973641 
Au      28.54570492      17.29584540      18.67344860 
Au      28.77786748      19.88695239      17.75430968 
Ag      28.42283009      23.29531355      18.84601533 
Ag      27.72038627      25.06974153      20.98185472 
Ag      26.64903163      25.03165179      24.15189307 
Ag      25.90298489      23.45419024      26.45660198 
Au      25.64857482      20.12051070      27.50780303 
Au      25.87983465      17.44043584      26.79557711 
Au      26.76496096      15.35039179      24.02393085 
Au      28.57776047      17.52900377      23.07011115 
Au      29.30662535      19.37952800      20.63858599 
Au      28.97457602      22.38921866      21.55420968 
Ag      28.00133127      22.44741035      24.56560315 
Au      27.74024790      19.47907892      25.52260400 
Au      25.48237828      13.33283834      22.26944859 
Au      26.25156741      13.29369422      19.35029421 
Au      27.16387454      15.10133125      17.08336853 
Au      27.58464197      17.86115724      15.96256719 
Ag      27.74005957      20.72307331      15.07331465 
Ag      27.66757643      23.66675386      15.99923901 
Ag      26.91283641      25.74923447      18.20888074 
Au      25.92635375      27.50477113      20.49800888 
Au      25.10719528      27.45797640      23.39205059 
Au      24.38025877      25.85538985      25.84333888 
Au      23.41919031      24.04894421      28.13928860 
Au      23.29615179      21.20954492      29.04853088 
Au      23.51068349      18.22745431      28.39311722 
Au      23.62526097      15.29666985      27.50038284 
Au      24.57329970      13.56817377      25.11165269 
Ag      24.09494309      11.60753072      15.43852983 
Au      24.08051610      14.80197110      14.38519330 
Au      24.19421854      17.57180611      13.44342196 
Au      24.44564166      20.39283906      12.64947816 
Au      25.62841734      23.18388271      11.50249928 
Au      24.22867046      25.11697511      14.03617107 
Au      23.38943280      26.80270335      16.23179235 
Au      22.53620994      28.49415928      18.48933438 
Au      22.50987407      30.73181540      20.89278230 
Au      21.22351345      28.61805676      23.30375555 
Ag      20.33435298      26.89487089      25.47366964 
Ag      19.60561382      25.14693967      27.72597889 
Au      19.51981496      23.74583276      30.59239229 
Au      19.22195962      20.50856291      29.26919365 
Ag      19.41128269      17.75030892      28.37661148 
Ag      19.71799937      14.93649366      27.52566230 
Au      20.49724476      11.89060607      27.27293852 
Au      21.03151092      11.96224515      23.78372070 
Au      21.74105140      11.96164636      20.96712285 
Au      22.58587589      11.98757388      18.16088845 
Ag      29.65886737      14.45013876      23.56488592 
Au      31.46166284      18.34186893      18.08344370 
Au      30.71052987      24.96663391      19.96453806 
Ag      28.54940193      24.96237941      26.52048756 
Au      27.99239356      18.41938729      28.89728856 
Au      28.92820319      27.77268069      18.86147503 
Au      30.23758660      18.58919670      14.73733879 
Ag      28.07967251      12.06480764      21.70983887 
Ag      25.38308614      16.45072373      29.83032948 
Au      25.96666962      26.36838884      28.31481446 
Au      26.74782752      26.63665430      15.26461555 
Au      23.10949434      28.78451925      25.76823551 
Au      21.54107656      18.84002377      30.68468379 
Au      23.95692262      10.80429926      23.41462398 
Au      27.11112523      15.63457544      13.82748668 
S      29.74651991      22.90787400      26.26990320 
S      29.43157253      18.52635524      27.04677111 
S      30.82206152      16.53660813      23.25120820 
S      31.68299269      19.66132501      20.01286015 
S      31.00367083      23.72287661      21.92870902 
S      27.84774061      27.18277301      27.13997438 
S      30.62361053      26.34109826      18.04994039 
S      31.43354484      17.06553027      16.10407975 
S      29.05000448      12.15565781      23.93234810 
S      26.70728847      18.22068578      30.85086316 
S      28.13033710      26.64946050      22.91330793 
S      29.68770462      22.08318789      17.02621607 
S      29.17967222      15.06589439      19.47518955 
S      26.85367813      15.19395709      26.47543467 
S      26.21034215      22.20872904      28.65562843 
S      24.15656527      25.78816853      29.70193195 
S      27.31736674      29.30666336      19.60333781 
S      29.25810052      20.06998863      13.20250293 
S      27.45265533      11.19385907      19.52809881 
S      24.23108388      14.32034562      29.64718502 
S      22.62069467      20.83611957      31.37561988 
S      24.83693690      29.66168732      24.40099297 
S      28.27012368      25.21130650      14.14997704 
S      27.95349339      13.85576757      15.14404146 
S      24.57412498      11.17481133      25.67224577 
S      20.33330516      16.81816720      30.49084948 
S      21.35006768      28.31231511      27.26626165 
S      25.30601406      28.33538178      16.04607139 
S      26.29940378      17.16746848      12.23322317 
S      23.28263979      10.07551907      21.27514073 
S      20.28417490      10.36409758      25.49751753 
S      20.67533339      13.28577766      29.14808848 
S      18.47150836      21.75692968      31.27699085 
S      20.47205230      25.80110464      29.98799517 
S      21.12805361      31.04068413      22.76943723 
S      23.81537742      30.54748896      18.93990194 
S      24.83761075      25.38761102      11.64820769 
S      26.38487786      20.97279792      11.25543291 
S      24.15215909      12.61394768      13.25077079 
S      24.24887025      10.33426543      17.48425883 
C      31.38903777      23.27147473      25.53843495 
C      30.77555060      19.70094209      27.45154838 
C      31.73163246      17.01737632      24.76581583 
C      32.80424047      18.77939358      21.16232802 
C      32.51403289      22.71292485      21.69554310 
C      28.99511294      27.71858945      28.47693269 
C      32.14876186      27.36781468      18.13153988 
C      33.14809805      17.14591137      15.44487661 
C      30.60493330      11.17476512      23.81196400 
C      27.78102983      17.33925354      32.05857570 
C      29.82206223      26.71961474      23.62403602 
C      31.51533373      22.21657009      17.16388782 
C      30.94494678      15.14527741      19.95846824 
C      28.62060578      15.08879432      26.95012868 
C      27.91084159      22.06621657      29.32704340 
C      24.88806822      24.82061005      31.07773194 
C      28.03459497      30.02031658      21.13521391 
C      30.41182859      21.49851022      13.13146703 
C      28.90616134      11.42463424      18.43160401 
C      25.48903570      13.04800360      29.24473856 
C      24.04870799      20.33125427      32.40458983 
C      26.23531763      30.07234717      25.50754497 
C      29.94634029      25.91875365      14.37746810 
C      29.77951900      13.90679423      15.02878520 
C      26.28272381      10.54192070      25.86078002 
C      18.97403301      17.03215769      31.71162726 
C      20.36002935      29.86168887      27.24233072 
C      24.95044335      29.28884487      14.51647482 
C      25.78615802      16.09279458      10.83489266 
C      22.18894563       8.64439142      21.63485204 
C      21.51317131       9.04071713      25.82232173 
C      19.34329662      12.74487564      30.28882542 
C      19.27718072      21.23675757      32.83969996 
C      19.34096207      27.07403090      30.67350523 
C      22.07337431      32.06320537      23.96285303 
C      23.22145285      31.88081294      17.83054063 
C      26.26729727      26.49470261      11.34701086 
C      26.04050144      20.50533508       9.51729774 
C      25.81061124      12.24340609      12.55553250 
C      23.42168496       8.72047391      17.22505560 
Ag      19.00534421      20.19531648      19.98484759 
Ag      16.13847479      20.23118170      19.07987942 
Ag      21.21308456      20.97354601      18.21002266 
Ag      20.90420139      18.16521907      19.05032659 
Au      19.77533064      23.49365072      17.78047327 
Au      20.58193803      21.78406772      15.53770134 
Au      20.25442572      18.99360146      16.33863423 
Au      19.98182827      16.16749042      17.16818367 
Au      18.99780680      16.12129996      19.93822639 
Au      18.17729164      16.09650117      22.76320066 
Ag      17.83876615      18.89111349      23.67379290 
Au      17.56695496      21.68155564      24.48221804 
Au      18.23421173      23.46197521      22.29757761 
Au      19.03143032      25.17042921      20.06196173 
Ag      17.54660813      22.69047372      19.55344436 
Au      18.28827951      21.00679048      17.28475920 
Ag      18.01918809      18.20956647      18.07988282 
Au      17.10398625      18.17347366      20.89887351 
Ag      16.79716179      20.93250634      21.78721020 
Au      19.97960412      13.98455383      21.89046342 
Ag      19.09091288      14.04292841      24.72608248 
Au      18.77491617      16.82714687      25.64227109 
Au      18.53878906      19.71340206      26.51056626 
Au      18.22340307      22.54459608      27.29670732 
Au      18.92160340      24.34755051      25.06839683 
Ag      19.73393915      26.06074278      22.79710620 
Au      15.47737274      22.45936798      26.36107012 
Ag      16.06811730      24.27359146      24.15806382 
Ag      16.90773056      25.99430510      21.95796745 
Au      17.73268177      27.77841116      19.69525203 
Au      18.36421248      26.07155904      17.29578526 
Au      19.14221974      24.37327664      15.09443019 
Au      19.97666682      22.60865326      12.79492763 
Au      19.57203774      19.77642260      13.49783099 
Au      19.35050643      17.04573306      14.40663752 
Au      19.09082962      14.14195936      15.27188899 
Au      18.03478625      14.03990986      18.00860299 
Ag      17.22890809      14.02310263      20.82701916 
Ag      16.38774991      14.03096664      23.73800679 
Au      15.99620660      16.81978165      24.63501018 
Ag      15.74959529      19.59800769      25.48690833 
Au      17.27243115      19.03820096      15.25709031 
Au      17.14229118      16.23322141      16.14068359 
Au      16.10966777      16.10065817      18.94169889 
Au      15.35222303      16.05469636      21.77608568 
Ag      14.87124753      18.82367753      22.75184640 
Ag      14.72769850      21.62935024      23.65304974 
Ag      15.33733073      23.48561140      21.40859657 
Au      16.18615434      25.19495080      19.21579662 
Ag      16.79747609      23.57980298      16.80143768 
Au      17.66556707      21.87188152      14.58762627 
Au      14.65248933      22.79397743      18.63931761 
Au      15.43147794      21.06295224      16.27208876 
Au      15.18575860      18.16284295      17.10844263 
Au      14.23455287      18.12340154      19.99279977 
Ag      13.90966405      20.94339194      20.93460696 
Au      13.30603775      20.22438093      18.16323232 
Ag      13.32297540      15.26314925      19.58212135 
Au      12.32976918      17.30615723      22.25739673 
Au      12.14825185      19.87003545      23.18427602 
Au      12.49441954      23.29846921      22.05921969 
Au      13.07111490      24.97462628      19.98172369 
Au      14.21719722      25.01382979      16.61738796 
Ag      14.93268177      23.45221599      14.39018106 
Au      15.25355898      20.14160541      13.36760386 
Ag      15.05896633      17.39074176      14.09107352 
Au      14.16795746      15.37558392      16.88514377 
Ag      12.40989511      17.52755463      17.79158198 
Ag      11.60925623      19.29879715      20.24471402 
Ag      11.83610167      22.33327644      19.34286881 
Ag      12.88274504      22.41294059      16.37085182 
Au      13.24350970      19.42199481      15.40761127 
Au      15.34893476      13.31476923      18.63089107 
Au      14.57930672      13.34813427      21.58975850 
Au      13.73821897      15.11409303      23.83077742 
Ag      13.35853166      17.88409220      25.00053407 
Au      13.25122142      20.75853253      25.97280776 
Ag      13.29824367      23.75859022      24.89738459 
Ag      14.04073829      25.70137779      22.68097989 
Au      14.98830171      27.44910979      20.44975820 
Au      15.80531075      27.41992087      17.56321048 
Au      16.52839782      25.84128758      15.06268652 
Au      17.49498409      24.08091325      12.80274206 
Au      17.61508980      21.24110718      11.85576438 
Au      17.31753858      18.26777825      12.46385828 
Au      17.28494077      15.39770468      13.41972760 
Ag      16.22335711      13.58621772      15.68293089 
Ag      16.74130723      11.60581670      25.50420384 
Au      16.88353134      14.79804195      26.54692300 
Au      16.68569615      17.58182083      27.41945820 
Au      16.44136590      20.39705651      28.27035452 
Ag      15.48061145      23.21119283      29.29184591 
Au      16.75993225      25.06566718      26.91853758 
Au      17.54583371      26.78423145      24.71523200 
Au      18.37007545      28.50449138      22.47904823 
Au      18.26276125      30.74253622      20.08774129 
Au      19.68102849      28.63730791      17.64612076 
Au      20.62229842      26.94744631      15.49629831 
Au      21.35108277      25.16513757      13.24480989 
Ag      21.60014390      23.62881798      10.49325902 
Au      21.60062025      20.49181667      11.59288237 
Au      21.52051345      17.73321388      12.50925119 
Au      21.24317971      14.98397637      13.43338235 
Au      20.37157963      11.81230800      13.79844694 
Ag      19.76954257      11.95431373      17.07377212 
Ag      19.06878604      11.94558119      19.91451749 
Au      18.20823650      12.02389672      22.75567457 
Ag      11.39500809      14.39879791      17.43738633 
Au       9.40037552      18.44840801      22.69634357 
Au      10.06870681      24.88642437      20.83053364 
Au      12.18624164      24.90140968      14.23024866 
Au      12.87962869      18.38061903      12.14664067 
Au      11.91527707      27.65919392      22.04208537 
Ag      10.68203701      18.88616129      25.83266942 
Au      12.89195630      11.73031007      19.07993060 
Au      15.53232109      16.53882513      10.76141361 
Au      14.98136749      26.32272037      12.53143245 
Ag      14.42122229      26.55345598      25.60324244 
Au      17.65391026      28.76595996      15.19842709 
Au      19.21579059      18.89965410      10.14142918 
Au      16.88883667      10.89123061      17.43974400 
Au      13.75923801      15.72151522      27.14179187 
S      11.15448386      22.83200386      14.61009730 
S      11.50057803      18.34990917      14.04567092 
S      10.17246973      16.42936186      17.84726525 
S       9.19225492      19.73101819      20.74417339 
S       9.72648416      23.63653349      18.87541211 
S      13.01973002      27.03064433      13.64710122 
S      10.17715084      26.23599626      22.76910414 
S       9.36097809      17.19998236      24.69072856 
S      12.04502576      12.12385327      16.91220907 
S      14.10733005      18.32163908      10.13745048 
S      12.84176135      26.49718632      18.05584848 
S      11.20470028      22.10007492      23.76776484 
S      11.70164760      15.06046738      21.51948654 
S      14.08017443      15.06419660      14.44094251 
S      14.62764491      22.20609193      12.20324873 
S      16.84526493      25.79384045      11.19932248 
S      13.55886302      29.19935484      21.38662182 
S      11.46602590      20.34795309      27.59083938 
S      13.61148903      11.13170389      21.24249854 
S      16.86542974      14.63985679      11.13897939 
S      18.17205038      20.92532572       9.50053859 
S      15.91177029      29.63174992      16.54852913 
S      12.67747932      25.29095806      26.75027344 
S      12.88018818      13.98744757      25.80515418 
S      16.40852777      11.16926595      15.13857073 
S      20.42758528      16.90060463      10.45522909 
S      19.45665988      28.25219728      13.77003268 
S      15.82559156      28.49393323      25.12034012 
S      14.62815325      17.22474614      28.73345443 
S      17.44172472      10.09398928      19.59234781 
S      20.59085277      10.18935593      15.48340912 
S      20.22488249      13.27318060      11.95471852 
S      22.54640475      21.58950459       9.61973783 
S      20.64909131      25.79388218      10.98991474 
S      19.63927636      31.03817663      18.20652400 
S      16.96917276      30.51474794      22.03755947 
S      16.23472151      25.50587810      29.28354184 
S      14.55069697      21.01157228      29.68347487 
S      16.70916385      12.63168267      27.67594985 
S      16.56936545      10.35708148      23.45151453 
C       9.48780012      23.17660040      15.29079463 
C      10.11054760      19.49627761      13.71159004 
C       9.16830712      16.78830792      16.35422691 
C       8.07465649      18.81180051      19.61914131 
C       8.15482626      22.72015031      19.09113518 
C      11.92985415      27.60826082      12.28254332 
C       8.68212789      27.30531046      22.70354722 
C       7.66875823      17.41378092      25.38378420 
C      10.49944478      11.12577877      16.85276864 
C      12.97575803      17.56131271       8.90271780 
C      11.13190283      26.58093305      17.40295151 
C       9.42240817      22.28938097      23.37373281 
C       9.89431224      15.05113967      21.19623893 
C      12.36689751      14.69314135      13.89548283 
C      12.92251647      22.04652227      11.54999934 
C      16.16128287      24.80939949       9.80930712 
C      12.88381847      29.96661562      19.86086290 
C      10.45340470      21.87604902      27.49392677 
C      12.09313594      11.21935068      22.27187835 
C      15.67839338      13.26046800      11.37495373 
C      16.68402632      20.49779038       8.52479796 
C      14.47615090      29.92610252      15.45245317 
C      11.09142883      26.16645114      26.45382702 
C      11.05353500      14.08806913      25.86965943 
C      14.75177149      10.42692275      14.87831713 
C      21.75756704      17.01576102       9.19387785 
C      20.40103410      29.82587855      13.70107967 
C      16.22733843      29.13926916      26.79334022 
C      15.15044199      16.11477146      30.10106817 
C      18.47808801       8.61744462      19.23187632 
C      19.35938125       8.88723866      15.08593486 
C      21.47509987      12.68633813      10.75056799 
C      21.61641773      21.17793372       8.09173469 
C      21.80966766      27.06254967      10.35468103 
C      18.68679244      32.03168078      16.99513748 
C      17.51190795      31.84663540      23.17206512 
C      14.75545686      26.56362704      29.52795287 
C      14.97077045      20.55505179      31.40886421 
C      15.03852906      12.32048225      28.37338622 
C      17.45291516       8.77235316      23.71865858 
H      31.89292436      22.31254107      25.36415466 
H      31.97497613      23.86307090      26.25059840 
H      31.30351784      23.80753224      24.58769240 
H      31.45074334      19.72782592      26.58713652 
H      31.31402049      19.31969034      28.32642200 
H      30.39513519      20.70940249      27.63993850 
H      32.12065495      18.03273608      24.62023789 
H      32.56862404      16.32170735      24.89700633 
H      31.08796874      17.00379708      25.65105624 
H      33.77609988      18.65011730      20.67339649 
H      32.39124830      17.81244057      21.46799262 
H      32.92016348      19.41527987      22.04903282 
H      33.37430453      23.38778281      21.62344364 
H      32.44270135      22.07919339      20.80604458 
H      32.61722881      22.08064441      22.58622303 
H      29.95028828      27.98676572      28.00995622 
H      29.15647850      26.92635088      29.21326147 
H      28.56854926      28.59949119      28.97024288 
H      32.07152700      28.14384997      17.36107965 
H      33.00495255      26.71739679      17.91849473 
H      32.26700582      27.82960663      19.11554291 
H      33.14511378      16.69534548      14.44542026 
H      33.79502723      16.56398616      16.11153444 
H      33.50638458      18.17722008      15.38617130 
H      30.33912315      10.11455232      23.72737665 
H      31.18763086      11.33149839      24.72718579 
H      31.20475155      11.46782798      22.94577664 
H      28.57032309      18.02270021      32.39177401 
H      28.22990747      16.44314509      31.62137951 
H      27.15548218      17.05608875      32.91346062 
H      30.48470219      27.21160295      22.90180538 
H      30.20693474      25.71794400      23.83795930 
H      29.77755710      27.30614915      24.54988155 
H      31.97164987      21.55026749      16.42245191 
H      31.83811295      21.92546770      18.16890658 
H      31.79221496      23.25829061      16.96572677 
H      31.53430513      15.25759030      19.04025573 
H      31.20357958      14.20591386      20.46284972 
H      31.13723566      15.98710796      20.62940494 
H      28.96601738      14.07950422      26.69336406 
H      28.69612062      15.25844330      28.03136157 
H      29.21769918      15.83760992      26.42181630 
H      28.17447752      23.03579188      29.76777267 
H      28.62680362      21.81963944      28.53796394 
H      27.91598174      21.28543886      30.09701808 
H      24.05054028      24.42494737      31.66585823 
H      25.49463139      25.49106993      31.69660720 
H      25.49327037      23.98997711      30.69710642 
H      28.89013304      30.64910551      20.86548406 
H      28.33317009      29.22861260      21.83274277 
H      27.24848859      30.63465072      21.59180689 
H      31.33947905      21.19418963      12.63470365 
H      30.62595206      21.89161435      14.13104513 
H      29.91149910      22.27500826      12.53894127 
H      28.56504281      11.32706926      17.39359637 
H      29.63483715      10.63765251      18.65856186 
H      29.35819597      12.41244635      18.57487443 
H      24.96294851      12.16714755      28.85634659 
H      26.02095515      12.78681532      30.16701443 
H      26.19491424      13.41174771      28.48981745 
H      24.62123488      21.23901027      32.63117739 
H      24.69301415      19.61587556      31.88329634 
H      23.67072270      19.89231567      33.33505457 
H      27.08882790      30.33305299      24.86997562 
H      26.50606873      29.22813311      26.14975564 
H      25.94979236      30.93827822      26.11584260 
H      30.01914175      26.85888564      13.81946273 
H      30.65924684      25.19352023      13.96592922 
H      30.16897778      26.09004293      15.43585790 
H      30.07003194      13.60772199      14.01509095 
H      30.17059006      13.18273221      15.75396787 
H      30.17155303      14.90282878      15.25748181 
H      26.25674026       9.44877575      25.78585448 
H      26.62751801      10.83429621      26.86017636 
H      26.95903302      10.95756185      25.10622049 
H      18.28662670      16.18614627      31.58826365 
H      18.43134807      17.96869183      31.54628451 
H      19.39497234      17.01600055      32.72324680 
H      19.45474514      29.67868229      27.83427697 
H      20.07592849      30.13940785      26.22190851 
H      20.94128327      30.66788113      27.70367805 
H      25.85281163      29.84061390      14.22896108 
H      24.14348762      29.99396823      14.75103494 
H      24.63421004      28.62851504      13.70262987 
H      25.25966004      16.72646280      10.11063790 
H      25.11935802      15.29298546      11.17375790 
H      26.68431701      15.66881246      10.37110758 
H      21.72772765       8.33755276      20.68802284 
H      21.40673207       8.91137522      22.35269613 
H      22.80259964       7.82600889      22.02900434 
H      21.56479309       8.40235445      24.93254850 
H      21.15503466       8.45567268      26.67729893 
H      22.50164672       9.46093395      26.03284692 
H      19.63435150      11.79394862      30.74919404 
H      18.38606668      12.63358075      29.76762439 
H      19.26233533      13.51552924      31.06547316 
H      18.92153815      20.22809563      33.08105129 
H      18.96837550      21.93484769      33.62639075 
H      20.36718690      21.23077204      32.73945327 
H      19.64572501      28.03277658      30.23593471 
H      19.46610578      27.11341820      31.76139187 
H      18.29647037      26.85917237      30.42131809 
H      22.10492094      33.08778963      23.57429512 
H      23.08702706      31.67550959      24.10283962 
H      21.53683224      32.04710787      24.91890319 
H      23.64531675      31.69371659      16.83643442 
H      23.59459199      32.83830590      18.21257913 
H      22.12708370      31.89561382      17.78081692 
H      26.54191303      26.41024920      10.28921707 
H      27.11546508      26.22668917      11.98561457 
H      25.94704553      27.52086498      11.56333949 
H      26.75035304      21.03440140       8.87098780 
H      25.01053039      20.75241339       9.23590515 
H      26.20902139      19.42417122       9.44052745 
H      25.99553977      12.91284308      11.70739836 
H      25.79477875      11.20430430      12.20544648 
H      26.59989125      12.37696626      13.30145485 
H      24.12854600       8.05887645      16.70983555 
H      22.51002757       8.82928613      16.62702553 
H      23.18238299       8.30167996      18.20987722 
H       8.90079837      23.71706025      14.54026960 
H       9.53587176      23.74799486      16.22348247 
H       9.01811746      22.20494464      15.48951299 
H       9.50991637      19.08250898      12.89366542 
H      10.46536626      20.50033308      13.45903051 
H       9.50521412      19.54312106      14.62523472 
H       8.38947102      16.02338215      16.25868366 
H       9.78433574      16.81181724      15.44969266 
H       8.69498726      17.76829654      16.49335383 
H       7.97019220      19.41391369      18.70777777 
H       7.09545393      18.70323658      20.09777904 
H       8.48739734      17.83148315      19.35799257 
H       8.00210829      22.12549840      18.18156291 
H       7.33536238      23.43962412      19.19506221 
H       8.19220609      22.05085138      19.95685668 
H      12.36683060      28.52416494      11.86774665 
H      10.94355107      27.82803634      12.70750101 
H      11.83664815      26.85243015      11.49796650 
H       7.80801847      26.67046199      22.88931413 
H       8.58368207      27.79677344      21.73185571 
H       8.76917148      28.05715216      23.49655681 
H       6.96469437      16.84274665      24.76780686 
H       7.37040628      18.46555969      25.40331678 
H       7.67241428      17.01363300      26.40463370 
H       9.98435663      11.36430166      15.91455041 
H       9.84242083      11.34899611      17.69794440 
H      10.76740394      10.06305733      16.86295823 
H      13.55789484      17.35440377       7.99711349 
H      12.18547793      18.28668260       8.67702309 
H      12.53439849      16.63523483       9.28077744 
H      11.15855668      27.19537038      16.49523002 
H      10.49615724      27.04878319      18.16448734 
H      10.74560603      25.58517303      17.16849263 
H       9.14664958      23.33082053      23.57504329 
H       8.86150486      21.60806698      24.02515461 
H       9.22554472      22.04182351      22.32625820 
H       9.63738809      14.06582269      20.78814135 
H       9.61743339      15.82636365      20.47565598 
H       9.37461182      15.21594294      22.14704611 
H      12.36552361      14.65617227      12.79923290 
H      11.67887609      15.47489850      14.23363962 
H      12.07234660      13.72121585      14.30808655 
H      12.94261020      21.35005720      10.70372565 
H      12.59880977      23.04018833      11.21639562 
H      12.23375588      21.68331592      12.31792181 
H      15.59635397      25.47888335       9.15110916 
H      15.52277452      23.99882918      10.17879438 
H      17.01678360      24.38584823       9.26850498 
H      13.68808554      30.57893055      19.43423446 
H      12.03358458      30.60212818      20.13227691 
H      12.58080759      29.20258301      19.13627520 
H      10.98960188      22.66933217      28.02930267 
H       9.48897261      21.68142017      27.97717349 
H      10.30036416      22.18859027      26.45527991 
H      11.42329059      10.40248355      21.98082737 
H      11.59334617      12.18755002      22.15735621 
H      12.40657958      11.08975249      23.31524199 
H      15.21559165      13.02507098      10.41009825 
H      14.91578399      13.51903386      12.11758277 
H      16.25923363      12.40118273      11.73315090 
H      17.00656365      20.09211111       7.55901918 
H      16.12123445      21.42594623       8.36727372 
H      16.05307915      19.77305924       9.04853568 
H      14.70619037      30.77980002      14.80457703 
H      13.62084291      30.16955055      16.09444557 
H      14.24009867      29.04480077      14.84828871 
H      10.28380616      25.54420401      26.85830225 
H      10.91602024      26.33063681      25.38572244 
H      11.10724573      27.12754740      26.97998023 
H      10.66564772      13.37149869      25.13547791 
H      10.69158043      15.09173981      25.62483555 
H      10.72772401      13.80074437      26.87587825 
H      14.46356610      10.64102262      13.84174350 
H      14.00543643      10.85272700      15.55784624 
H      14.81756422       9.34274512      15.02202478 
H      21.30976638      16.90106973       8.19992817 
H      22.45851728      16.19292535       9.38100894 
H      22.28752289      17.97136944       9.26307969 
H      19.81396222      30.56229219      13.14013728 
H      21.34041258      29.62154046      13.17277006 
H      20.62051107      30.20129870      14.70576886 
H      17.03347850      29.87593323      26.69283845 
H      16.54971252      28.33518916      27.46392882 
H      15.33433028      29.62871239      27.19996224 
H      14.25610127      15.68666325      30.56835164 
H      15.68848397      16.73116427      30.83182093 
H      15.80922970      15.31842206      29.73897617 
H      17.84690454       7.83525169      18.79530080 
H      18.88990894       8.26516882      20.18575772 
H      19.29980752       8.85902745      18.54928869 
H      19.69162000       8.35920253      14.18523261 
H      18.36481392       9.31898201      14.93131594 
H      19.33071794       8.18874206      15.93082097 
H      21.54547284      13.44766101       9.96398034 
H      21.12461116      11.74261298      10.31680849 
H      22.45007030      12.54369268      11.23083988 
H      21.99861209      21.82360705       7.29192921 
H      20.54097391      21.33405124       8.21929157 
H      21.80370798      20.12852491       7.83602531 
H      21.65063636      27.15644682       9.27365067 
H      22.85128961      26.78750837      10.55384107 
H      21.57082197      28.01559909      10.84179180 
H      19.23367503      32.02300694      16.04493262 
H      18.63023067      33.05714383      17.37877060 
H      17.68198906      31.62522333      16.84554879 
H      17.09663679      32.79768540      22.81864484 
H      18.60483840      31.90621358      23.21812781 
H      17.10101441      31.60966187      24.16126353 
H      15.02660235      27.60302031      29.30922730 
H      14.45977251      26.47801423      30.58036863 
H      13.93023956      26.25128102      28.87809023 
H      14.86889122      19.46749155      31.50637620 
H      14.25064254      21.04856555      32.07279812 
H      15.98856481      20.86473337      31.67073712 
H      15.02884715      11.29006932      28.74850307 
H      14.25506016      12.45524751      27.62198420 
H      14.86837603      13.01441280      29.20467748 
H      17.67339648       8.34173967      22.73455693 
H      16.78514070       8.09955432      24.26992110 
H      18.37959910       8.92152863      24.28354436 
