646
Properties=species:S:1:pos:R:3 i=107 optimized=T E=-10243.3527860339 pbc="F F F" jobid=246_80-Ag-69_9-000002-PBE
Ag      21.84140150      20.23173220      20.89933706 
Au      24.67061152      20.23929142      21.79572776 
Ag      20.44418514      22.75579535      20.44466155 
Au      19.71385659      21.01218038      22.73933089 
Ag      19.99207428      18.20269911      21.83211816 
Ag      21.11823852      23.54318623      23.15160712 
Ag      20.37938733      21.77573673      25.45140407 
Ag      20.68309642      18.98293028      24.62649463 
Ag      20.90748502      16.21140084      23.70123920 
Au      21.81085723      16.13926035      20.88446401 
Ag      22.69837533      16.13556488      18.05670576 
Au      23.01535118      18.92259780      17.16421418 
Ag      23.30112100      21.75484217      16.31398004 
Ag      22.57335242      23.52319128      18.58329284 
Ag      21.82325530      25.26897854      20.88108656 
Au      23.29469407      22.78733402      21.36135933 
Ag      22.56810104      21.01212403      23.64540177 
Au      22.84299217      18.17881950      22.79069136 
Au      23.72213471      18.16996072      19.95731823 
Au      24.02109579      21.01855422      19.06157990 
Ag      20.87472710      14.03580721      18.98355532 
Ag      21.79597152      14.05168563      16.14868422 
Ag      22.12917905      16.87303006      15.27784154 
Ag      22.39317560      19.74631970      14.38726440 
Ag      22.67532229      22.56821232      13.53548934 
Ag      21.93985287      24.33114566      15.83518276 
Ag      21.13762573      26.09237863      18.12673117 
Ag      20.40351618      27.82788598      20.42506185 
Ag      25.38941734      22.52831051      14.52017372 
Ag      24.72657349      24.32127219      16.73272769 
Au      23.90083379      26.03405321      19.00417079 
Ag      23.15929353      27.81451885      21.27909725 
Ag      22.55207919      26.12025093      23.61122273 
Au      21.82005842      24.32000915      25.82378298 
Au      21.05119062      22.50653520      28.15308047 
Ag      21.37229157      19.74265187      27.41766161 
Ag      21.57686603      16.97367273      26.49527814 
Au      21.75269938      14.17992096      25.54873445 
Au      22.76970929      14.05691111      22.74885617 
Ag      23.61597167      14.05866071      19.97091842 
Ag      24.48162344      14.09526919      17.13321608 
Ag      24.90631846      16.82906247      16.19479776 
Ag      25.14872494      19.67398254      15.36037570 
Ag      23.55151974      18.96315390      25.53825141 
Ag      23.72369578      16.17443096      24.65609817 
Ag      24.73213248      16.07102861      21.89048940 
Au      25.48744413      16.08813179      19.03660336 
Ag      25.91524592      18.88319603      18.15115869 
Ag      26.08820252      21.71474287      17.24759617 
Ag      25.51243537      23.51450716      19.54048516 
Ag      24.67184315      25.27832667      21.74710471 
Ag      24.04175820      23.58178040      24.10008622 
Ag      23.20083349      21.80757039      26.34250900 
Au      26.18713202      22.75820495      22.30279398 
Au      25.40230547      21.01805627      24.59929376 
Ag      25.68023597      18.16324654      23.72678585 
Au      26.59384007      18.12616441      20.91419986 
Ag      26.92315734      20.98478776      19.99733386 
Ag      27.51237748      20.19677363      22.74954639 
Ag      27.46309858      15.30234261      21.27909361 
Ag      28.38208737      17.36594966      18.70186573 
Au      28.60284109      19.98232225      17.81435335 
Au      28.37949783      23.36443086      18.94898334 
Au      27.73390211      25.01837171      21.02097531 
Ag      26.56441745      24.97115924      24.18369383 
Ag      25.80882407      23.39324728      26.42456890 
Ag      25.57745973      20.04172687      27.32142709 
Ag      25.82133755      17.26089593      26.58502598 
Ag      26.63011527      15.37383031      24.01524988 
Ag      28.43662567      17.49918490      23.02339952 
Ag      29.23094931      19.34969236      20.66542343 
Ag      28.95943932      22.36827928      21.63706048 
Ag      27.95082756      22.38914031      24.56712057 
Ag      27.65732884      19.38001649      25.45871991 
Ag      25.50285357      13.35720812      22.23499176 
Ag      26.28492441      13.36509557      19.33236508 
Ag      27.23136414      15.15772793      16.99434795 
Au      27.48955529      18.01504339      15.94164743 
Ag      27.69434348      20.89120776      15.03041620 
Ag      27.53979010      23.82434613      16.03658166 
Au      26.72817642      25.70811374      18.22061178 
Au      25.84560045      27.52967651      20.43814753 
Ag      25.16941765      27.48530177      23.42496133 
Ag      24.33326977      25.83757262      25.82941740 
Ag      23.42936636      24.13903282      28.14160818 
Ag      23.43171008      21.07965936      29.12267553 
Au      23.59122205      18.17084212      28.27332819 
Au      23.67506464      15.23851688      27.36698547 
Au      24.52576162      13.49859201      25.01972199 
Ag      24.12283854      11.79591805      15.22114858 
Ag      23.95854339      14.85327593      14.30767474 
Ag      24.18757283      17.64248941      13.43647728 
Ag      24.53781268      20.47195701      12.62626891 
Ag      25.36619336      23.38116307      11.59213412 
Au      24.08010786      25.08960358      14.02827073 
Ag      23.26210467      26.81788375      16.24217942 
Ag      22.53089307      28.56133481      18.46733169 
Au      22.48941151      30.70635569      20.85220068 
Au      21.11705429      28.56661497      23.17808851 
Ag      20.36623857      26.87431630      25.44001506 
Ag      19.74691378      25.10410304      27.69547663 
Au      19.42101463      23.56133958      30.49277113 
Ag      19.23795288      20.47615261      29.21371449 
Au      19.38955460      17.71106393      28.34552951 
Au      19.64550199      14.93508188      27.42194765 
Ag      20.33116542      11.92100467      27.02824332 
Au      20.99406151      12.02317093      23.73581476 
Ag      21.76419050      11.98635395      20.91249235 
Ag      22.65366584      11.99372036      18.10273902 
Ag      29.52132426      14.49445296      23.27262722 
Au      31.23513469      18.39068278      18.09416424 
Au      30.79069159      24.86113927      20.27977906 
Ag      28.40818594      24.86693445      26.62398180 
Ag      27.90486739      18.39497491      28.46307062 
Ag      28.83286151      27.47378971      19.24568127 
Au      30.13439133      18.64466433      14.75765661 
Ag      28.00701076      11.91585898      21.72899242 
Ag      25.44404806      16.50079125      29.79071189 
Ag      25.90092227      26.23010318      28.29215933 
Ag      26.32780085      26.68910124      15.40163252 
Ag      23.10872581      28.60954410      25.52047713 
Ag      21.67673889      18.98482618      30.48881603 
Ag      23.83004689      10.98752173      23.21121430 
Ag      26.85159816      15.90875756      13.93434318 
S      29.50887819      22.74016868      26.47870382 
S      29.52304333      18.29121074      26.68567833 
S      30.71466813      16.51174412      22.74141036 
S      31.61666174      19.75226956      19.97041199 
S      31.06620283      23.59805299      22.24308899 
S      27.76375082      27.14208913      27.06141002 
S      30.74124643      26.23908771      18.36997942 
S      31.12959031      17.02048349      16.16888646 
S      28.96088192      12.24400133      23.91589292 
S      26.73433848      18.39120547      30.56503652 
S      27.93441221      26.62512202      22.89171314 
S      29.56236155      22.20300990      17.13489083 
S      28.89520437      14.97045067      19.17207041 
S      26.95853235      14.99046763      26.45966670 
S      25.89872481      22.15687126      28.64394401 
S      24.10975329      25.83167713      29.82562541 
S      27.36265170      29.32518261      19.78004562 
S      29.29593246      20.20657359      13.22532531 
S      27.17314387      11.07701526      19.64887544 
S      24.20658454      14.44034552      29.61570239 
S      22.68193412      20.95888236      31.49903528 
S      24.85764904      29.77991795      24.29991997 
S      28.09087941      25.44484674      14.25094223 
S      27.70460898      13.85912444      14.94462487 
S      24.48466671      11.11449043      25.56160790 
S      20.28071283      16.99508398      30.51087220 
S      21.39848014      28.27340696      27.21448187 
S      24.89348380      28.63062964      15.77807155 
S      26.25044897      17.37695003      12.08709763 
S      23.31147535      10.03540705      21.04069265 
S      20.15977184      10.28149555      25.26012148 
S      20.62241968      13.32895888      28.97717041 
S      18.33271763      21.61721177      31.26014554 
S      20.47727870      25.60880449      30.02666432 
S      21.04077723      31.01365673      22.68551167 
S      23.95009552      30.55934622      19.02346095 
S      24.56397537      25.65114663      11.66085282 
S      26.47478966      21.28286046      11.28311445 
S      24.02180795      12.72710869      13.00626353 
S      24.52803754      10.58561325      17.24901232 
C      31.21535464      23.09137123      25.89475907 
C      30.86567115      19.46729903      27.10707235 
C      31.79967170      16.85048043      24.18444577 
C      32.82459503      18.83634706      21.00100080 
C      32.58113479      22.59287788      22.01545907 
C      28.89748372      27.75849828      28.37991634 
C      32.16797394      27.38486823      18.57262225 
C      32.86603208      16.92966045      15.56740197 
C      30.54144151      11.29584342      23.85142404 
C      27.92302070      17.68062313      31.78272412 
C      29.62975012      26.72153153      23.59196285 
C      31.37708236      22.40665574      17.34060898 
C      30.70685464      14.66253377      19.27749461 
C      28.73587163      14.80099021      26.88279060 
C      27.42698712      22.12572083      29.66998895 
C      24.77826736      24.78923233      31.18220127 
C      27.93401640      30.03774039      21.36974946 
C      30.49730436      21.59691528      13.23918416 
C      28.59885502      11.09475532      18.48779641 
C      25.43561158      13.11452156      29.30299540 
C      24.06427105      20.35320898      32.54618305 
C      26.16576670      30.21602667      25.51205745 
C      29.67010385      26.29091218      14.65603146 
C      29.51968649      13.84210320      14.66236431 
C      26.18236484      10.44379377      25.72407043 
C      18.96312721      17.39736921      31.72683637 
C      20.46831981      29.86093682      27.16606648 
C      24.48452657      29.21317237      14.08165969 
C      25.76098070      16.21370621      10.74672944 
C      22.20353428       8.63006920      21.47167715 
C      21.41319369       8.98109820      25.59303129 
C      19.35331242      12.90187857      30.22513606 
C      19.18476886      21.19057338      32.83126939 
C      19.42265638      26.91692899      30.76043821 
C      21.95733556      32.04749175      23.89335458 
C      23.48284270      31.92328828      17.89009627 
C      26.04598276      26.71363747      11.44168550 
C      26.23335134      20.78103368       9.53436493 
C      25.65019806      12.35292870      12.23843308 
C      23.91697374       8.87435579      16.99039622 
Au      19.04452953      20.24145082      19.96409841 
Au      16.16629225      20.26721830      19.05660054 
Au      21.16603564      21.03260924      18.12582117 
Ag      20.88602744      18.18781489      19.00797235 
Ag      19.73820723      23.53786805      17.71247093 
Ag      20.54097084      21.80822316      15.40586083 
Ag      20.20565486      19.00135424      16.25659914 
Ag      19.95952919      16.19017437      17.15782649 
Ag      19.02975767      16.15188004      19.93745343 
Au      18.16945971      16.18033646      22.75408874 
Au      17.83895284      18.93432421      23.70122047 
Ag      17.61496717      21.74679691      24.58000941 
Ag      18.27492842      23.51207175      22.29029315 
Ag      19.04564297      25.23818126      20.03402988 
Ag      17.56965140      22.75363424      19.53405471 
Ag      18.29847517      21.04428530      17.22775675 
Au      18.02997557      18.21303099      18.07652723 
Au      17.12158690      18.17820882      20.88849051 
Ag      16.87524513      20.97894698      21.78962056 
Ag      19.99511173      14.03851971      21.84861064 
Au      19.02929272      14.08564406      24.66263315 
Au      18.73447894      16.89353535      25.61580838 
Ag      18.52738992      19.71759054      26.49549820 
Ag      18.25808506      22.55169156      27.35120216 
Au      18.95418859      24.33220465      25.05022234 
Ag      19.71808713      26.10128480      22.73664235 
Ag      15.53065361      22.49640307      26.39257434 
Ag      16.11868684      24.29655013      24.15798163 
Ag      16.91551656      25.99894686      21.87611854 
Ag      17.65631847      27.75667209      19.61935149 
Au      18.31754099      26.09491311      17.30266200 
Ag      19.13727795      24.34752866      15.03704604 
Ag      19.91816011      22.60195831      12.68860371 
Au      19.54082370      19.81152367      13.46170100 
Au      19.29798709      17.01818944      14.38060020 
Au      19.06125141      14.21384010      15.29959467 
Au      18.10098540      14.08226947      18.05436924 
Ag      17.24487547      14.08597575      20.85652678 
Au      16.35454383      14.11304378      23.67136386 
Ag      15.95035491      16.82463183      24.66762499 
Ag      15.73828961      19.66149136      25.51662862 
Au      17.31606650      19.04511435      15.29908645 
Ag      17.15019915      16.23502246      16.17477640 
Ag      16.14915481      16.10719359      18.96305031 
Ag      15.36541916      16.10374139      21.79056968 
Ag      14.96632221      18.90218863      22.74905311 
Au      14.81597348      21.71259222      23.63117517 
Ag      15.38353551      23.49834681      21.37285144 
Ag      16.18971725      25.23956593      19.16510490 
Au      16.84714604      23.61279662      16.79255485 
Au      17.71686892      21.88261440      14.54112909 
Ag      14.69150007      22.74913816      18.58836156 
Ag      15.43801759      21.06573923      16.25685205 
Au      15.17243159      18.18736171      17.12501805 
Ag      14.29928716      18.14431613      19.98179390 
Ag      13.98363543      20.97160439      20.87675233 
Ag      13.35181996      20.23770848      18.11858031 
Ag      13.37944270      15.22411511      19.59373823 
Au      12.54651059      17.40897565      22.16747047 
Ag      12.27459053      20.00532067      23.10949996 
Ag      12.54892037      23.26581270      21.99664101 
Au      13.22918136      24.98873179      19.93356674 
Ag      14.27912764      24.93019272      16.69199655 
Ag      15.05938780      23.41090187      14.45874430 
Au      15.21307614      20.00910285      13.45394261 
Au      15.08632626      17.35053339      14.16624893 
Ag      14.19236658      15.39747319      16.90481863 
Au      12.49574535      17.54181304      17.85722317 
Ag      11.64286018      19.39254104      20.24733918 
Ag      11.91720646      22.37353778      19.28033485 
Ag      12.88735006      22.37451871      16.29583415 
Ag      13.13520511      19.29883587      15.41648880 
Au      15.40583095      13.36720531      18.66034789 
Ag      14.60802389      13.26452513      21.57054728 
Ag      13.63176529      15.13823418      23.83040171 
Au      13.38371102      17.96307753      24.96136948 
Ag      13.19291933      20.84137850      25.86266290 
Ag      13.30716585      23.77023979      24.87717256 
Ag      14.08365802      25.66800370      22.66390758 
Au      14.97409578      27.48106009      20.45702490 
Ag      15.64948891      27.44225125      17.49063417 
Ag      16.55034023      25.90374085      15.05543605 
Au      17.44946965      24.08536244      12.79573608 
Ag      17.47799442      21.16293383      11.80801907 
Ag      17.33381659      18.21035434      12.52360952 
Ag      17.26526330      15.33109205      13.35413984 
Ag      16.27479304      13.54740378      15.78159532 
Ag      16.61300830      11.71766833      25.48932315 
Ag      16.80475202      14.79176380      26.54205431 
Ag      16.68439773      17.62853411      27.42684371 
Ag      16.42910587      20.45887609      28.28007522 
Ag      15.57561100      23.36657776      29.27361074 
Ag      16.85154658      25.09417648      26.88080663 
Au      17.59967899      26.79370937      24.61023648 
Ag      18.26578115      28.56159859      22.35686366 
Ag      18.51909687      30.63509764      19.95932692 
Au      19.64198149      28.58249105      17.66648755 
Ag      20.48500934      26.85916235      15.45401980 
Ag      21.24979481      25.16733834      13.19956397 
Au      21.55746694      23.55855931      10.38909547 
Ag      21.68881092      20.48683754      11.68142478 
Au      21.48244960      17.74177210      12.56794210 
Ag      21.11763494      14.94585455      13.36689338 
Ag      20.50046037      11.89726233      13.97296437 
Ag      19.81770525      12.01094713      17.09787065 
Ag      19.08318292      12.04084017      19.92901665 
Ag      18.19153790      11.99198948      22.76537257 
Au      11.27203286      14.40752491      17.49252851 
Ag       9.74168817      18.43474125      22.78301209 
Ag      10.30533732      24.80814697      20.64637577 
Ag      12.39931951      24.78365973      14.26239040 
Ag      12.98575450      18.36468788      12.25061347 
Ag      11.97083987      27.48773961      21.75957369 
Ag      10.76290686      18.72455464      26.02678798 
Ag      12.89982609      11.97377988      19.15947989 
Ag      15.49736196      16.59452740      10.86336725 
Ag      14.96099539      26.15174918      12.59789169 
Ag      14.47522475      26.57426476      25.51854195 
Au      17.64579597      28.71895613      15.16455852 
Ag      19.31856555      18.94763201      10.38945860 
Au      16.95056244      10.88225763      17.56837928 
Au      13.91097845      15.76010130      27.04626576 
S      11.26891623      22.66910306      14.41720434 
S      11.36278184      18.20560646      14.01947295 
S      10.28233663      16.46305738      18.07331493 
S       9.25996183      19.84514434      20.89162975 
S       9.87976381      23.64961253      18.58259611 
S      13.04829387      27.04868023      13.75581152 
S      10.18604583      26.13587454      22.65598321 
S       9.59282637      17.04555481      24.74786070 
S      12.05644718      12.27160074      16.89477165 
S      14.14150692      18.44624550      10.13270551 
S      12.95876836      26.60382874      17.99464373 
S      11.27520466      22.19818672      23.84786148 
S      11.92670929      15.05286361      21.68005017 
S      14.32991563      15.00002321      14.42752477 
S      14.81545877      22.10761940      12.26776026 
S      16.81822730      25.74131468      11.12345413 
S      13.49327808      29.27830006      21.24038201 
S      11.58327837      20.27967689      27.65995858 
S      13.44811042      11.07666506      21.31948999 
S      16.84026567      14.61975426      11.01569068 
S      18.28388794      20.93823455       9.48141803 
S      15.97723827      29.70841427      16.51679908 
S      12.77138210      25.32111463      26.72728042 
S      13.08756562      13.85891795      25.89901040 
S      16.48581246      11.11333371      15.26143782 
S      20.57680135      16.86759255      10.44393148 
S      19.35523005      28.17008883      13.62964868 
S      15.89996842      28.50138983      25.05120343 
S      14.54292092      17.38632229      28.64388839 
S      17.46927202      10.14220466      19.74907084 
S      20.80707252      10.22123827      15.68066101 
S      20.07078146      13.15241073      11.97287151 
S      22.64805274      21.60083931       9.66091719 
S      20.48223485      25.59898075      10.84517543 
S      19.92973314      30.99902863      18.03746661 
S      16.96556445      30.61354023      21.78353277 
S      16.34427701      25.64553218      29.24724967 
S      14.49420082      21.25342898      29.63159699 
S      16.74269346      12.59265616      27.72408914 
S      16.37340726      10.43512965      23.47104205 
C       9.56702635      23.01146701      15.01275065 
C       9.99267134      19.34766672      13.58943821 
C       9.23013237      16.93248984      16.64784672 
C       8.08891367      18.89793239      19.84061908 
C       8.33865003      22.67720476      18.79273534 
C      11.91989748      27.61625968      12.41149983 
C       8.68296431      27.19291958      22.50483929 
C       7.84463241      17.17097659      25.31922741 
C      10.54484213      11.22241384      16.81314944 
C      13.01995032      17.70396453       8.87254727 
C      11.28243962      26.80490984      17.26617595 
C       9.45686429      22.44021133      23.69816029 
C      10.10089082      14.88413710      21.54249484 
C      12.66452324      14.65429559      13.72621524 
C      13.23058807      22.00265711      11.34532819 
C      16.20105848      24.69807964       9.74428673 
C      12.90044096      30.01916857      19.66917641 
C      10.44564491      21.72249151      27.63753268 
C      11.95834389      11.26652344      22.37680636 
C      15.66379469      13.22726020      11.25050620 
C      16.92618383      20.39050520       8.37263008 
C      14.59116098      30.14272342      15.39662062 
C      11.15390350      26.12807993      26.39974111 
C      11.27241924      13.88123521      26.17260790 
C      14.82936150      10.36281768      15.01454742 
C      21.92157538      17.14244137       9.22140572 
C      20.32133407      29.73179524      13.52500612 
C      16.31220037      29.15256202      26.72008128 
C      14.98769734      16.38360146      30.12098504 
C      18.52380566       8.66639231      19.44350121 
C      19.58327773       8.90268338      15.29662399 
C      21.24135798      12.58684519      10.67917886 
C      21.79520332      21.13510754       8.10083208 
C      21.52036360      26.88648826      10.05030042 
C      18.93891197      31.99153176      16.85097669 
C      17.47988297      31.95379073      22.92773753 
C      14.84916394      26.68352619      29.50442938 
C      14.75909195      20.84148212      31.40148433 
C      15.13898598      12.20892291      28.53332137 
C      17.10964759       8.78955773      23.81869913 
H      31.71883499      22.12962227      25.73675608 
H      31.74757158      23.65411105      26.66962659 
H      31.21359090      23.65288721      24.95472989 
H      31.53645811      19.53572726      26.24182282 
H      31.42245706      19.07521461      27.96557301 
H      30.46571434      20.46078253      27.33642810 
H      32.31441635      17.80141553      23.99917459 
H      32.54207786      16.04964663      24.27278393 
H      31.21736147      16.93156239      25.10867744 
H      33.77194003      18.75763837      20.45668752 
H      32.44444986      17.84312153      21.26259752 
H      32.97805481      19.42148763      21.91630681 
H      33.44983694      23.25975594      21.98317563 
H      32.52787927      21.99364628      21.10060998 
H      32.66387049      21.92820362      22.88441796 
H      29.86513717      27.99398402      27.92187188 
H      29.04036784      27.01808153      29.17205334 
H      28.46568901      28.67091044      28.80738834 
H      32.07887589      28.16436882      17.80651189 
H      33.09603806      26.82289731      18.41815145 
H      32.17706821      27.84562270      19.56427197 
H      32.85359980      16.45181024      14.58076241 
H      33.43744672      16.31277615      16.27054241 
H      33.31549265      17.92367585      15.49320239 
H      30.30443033      10.22565482      23.86267403 
H      31.12959391      11.54673745      24.74184544 
H      31.12240053      11.53059594      22.95504722 
H      28.67253790      18.44328202      32.02381227 
H      28.42236708      16.78997732      31.39093560 
H      27.36778679      17.41687080      32.69043094 
H      30.26784367      27.26478333      22.88485499 
H      30.04510164      25.72321151      23.76197331 
H      29.55835916      27.26696277      24.54081102 
H      31.87125555      21.80437746      16.56916170 
H      31.68322533      22.06201394      18.33387202 
H      31.61221548      23.46988095      17.21679815 
H      31.15684023      14.89124368      18.30510056 
H      30.86485783      13.60723976      19.52945809 
H      31.14298836      15.29895558      20.05540713 
H      29.06579496      13.82733707      26.50061619 
H      28.83515643      14.82858849      27.97471556 
H      29.34177775      15.60175996      26.44774465 
H      27.48682795      23.06207003      30.23706408 
H      28.30369330      22.03032053      29.01981580 
H      27.36497594      21.27009828      30.35244864 
H      23.92406486      24.45746574      31.78533527 
H      25.45769212      25.38729655      31.79906993 
H      25.29590692      23.90698595      30.79055822 
H      28.80463058      30.67248882      21.16762932 
H      28.19492161      29.24966760      22.08490602 
H      27.11611755      30.64317964      21.77953750 
H      31.43272658      21.27539878      12.76854674 
H      30.68848257      21.95940146      14.25430929 
H      30.04394046      22.40431063      12.65024829 
H      28.20008648      10.88742443      17.48684891 
H      29.30727708      10.30945928      18.77353266 
H      29.09955983      12.06906960      18.47727345 
H      24.89107726      12.23068771      28.94870922 
H      25.94479469      12.88572699      30.24617127 
H      26.16116032      13.42381368      28.54116884 
H      24.62299477      21.22850364      32.89927742 
H      24.74088084      19.69814492      31.98588635 
H      23.65511940      19.81325065      33.40747310 
H      27.00155434      30.65583730      24.95444214 
H      26.52221663      29.33500808      26.05721110 
H      25.76927143      30.95593467      26.21621529 
H      29.68060016      27.27557335      14.17518478 
H      30.49052121      25.68265514      14.25646934 
H      29.80235623      26.40511164      15.73701965 
H      29.71389099      13.65408859      13.60028260 
H      29.94633992      13.02778095      15.26032505 
H      29.98051713      14.78953746      14.96135077 
H      26.13095219       9.35307746      25.62682732 
H      26.55550012      10.70748354      26.72089669 
H      26.85886911      10.85528733      24.96792536 
H      18.19108317      16.62124457      31.66292900 
H      18.51366309      18.37613174      31.52556644 
H      19.40581841      17.39144924      32.72992824 
H      19.57183481      29.74586145      27.78718858 
H      20.16870226      30.12252238      26.14579134 
H      21.09742708      30.65607783      27.58234075 
H      25.37914072      29.66204130      13.63457336 
H      23.70058981      29.97561601      14.16379793 
H      24.12652656      28.39344303      13.44936249 
H      25.29389489      16.79633782       9.94372850 
H      25.05349323      15.45703682      11.10340880 
H      26.66198443      15.72279497      10.36111307 
H      21.77816035       8.23738451      20.54033898 
H      21.39124823       8.94520281      22.13546906 
H      22.79586220       7.84627237      21.95765117 
H      21.52163559       8.36157274      24.69510731 
H      21.03676546       8.36464721      26.41812978 
H      22.38147004       9.41659983      25.85951780 
H      19.70505698      12.02119646      30.77594941 
H      18.38712000      12.68887151      29.75337866 
H      19.26443022      13.75338478      30.91070586 
H      18.77971586      20.23326196      33.18006281 
H      18.96058609      21.97054372      33.56735310 
H      20.26762604      21.10663143      32.68472714 
H      19.79284514      27.87159218      30.36666417 
H      19.54229055      26.89729975      31.84953376 
H      18.36924197      26.78014779      30.49218504 
H      22.05740551      33.05373442      23.47061419 
H      22.94447966      31.62184812      24.10571561 
H      21.36192330      32.09320701      24.81293771 
H      23.99241646      31.72150691      16.93965579 
H      23.84018545      32.87166878      18.30663611 
H      22.39901026      31.96119075      17.73488217 
H      26.35403561      26.64161017      10.39204332 
H      26.86415110      26.39743165      12.09799225 
H      25.76808767      27.74901710      11.67031122 
H      26.93190610      21.34723809       8.90770643 
H      25.20540426      20.96182856       9.20233527 
H      26.46688602      19.71142336       9.46916569 
H      25.72337809      12.91706510      11.30122464 
H      25.69036943      11.27984304      12.02006125 
H      26.47441236      12.63381603      12.90341191 
H      24.62780578       8.33865672      16.35120720 
H      22.92275818       8.87291123      16.52995375 
H      23.87645491       8.39614699      17.97663352 
H       9.02998050      23.58778334      14.25138781 
H       9.57968047      23.55594055      15.96347831 
H       9.06510642      22.04653877      15.15639887 
H       9.49425296      18.98398530      12.68399954 
H      10.36164338      20.36736610      13.43424969 
H       9.27693582      19.34550928      14.42105842 
H       8.39807094      16.22264643      16.58053335 
H       9.80851922      16.94369274      15.71724494 
H       8.84148747      17.93788373      16.85098406 
H       7.94503763      19.45479638      18.90641092 
H       7.12816797      18.81479250      20.36115359 
H       8.47614599      17.89991665      19.61151812 
H       8.20058087      22.06777475      17.89100340 
H       7.49299431      23.36626203      18.89575454 
H       8.40199312      22.02129754      19.66802396 
H      12.34774432      28.51735316      11.95704641 
H      10.94814830      27.85943697      12.85678960 
H      11.78575348      26.84927155      11.64353830 
H       7.80361125      26.57308911      22.71531880 
H       8.59054324      27.62635004      21.50509584 
H       8.74778978      27.99694897      23.24710554 
H       7.21667761      16.56894714      24.65224825 
H       7.48992734      18.20557891      25.31586022 
H       7.78295194      16.76820170      26.33690051 
H       9.96640541      11.50198088      15.92540238 
H       9.92756921      11.33610021      17.70859417 
H      10.87304241      10.17982888      16.72420473 
H      13.60525292      17.48142507       7.97278665 
H      12.24263401      18.43730754       8.62796550 
H      12.55005869      16.78616066       9.23713544 
H      11.40323408      27.24591308      16.26936530 
H      10.70493085      27.47740315      17.91162246 
H      10.77196784      25.83843506      17.19415474 
H       9.25027691      23.51522816      23.75231906 
H       8.96858469      21.91335561      24.52640099 
H       9.10590507      22.03217355      22.74381829 
H       9.87739244      13.84182311      21.28498863 
H       9.72548579      15.54682322      20.75539599 
H       9.65503447      15.14513836      22.50950340 
H      12.75069262      14.60090989      12.63448405 
H      11.96380469      15.44820878      14.00627713 
H      12.32899058      13.69313835      14.13291246 
H      13.30889545      21.18844738      10.61547666 
H      13.08357827      22.96094281      10.83225835 
H      12.39792218      21.82499288      12.03425699 
H      15.62783630      25.33363175       9.05965571 
H      15.57761159      23.87624960      10.11253076 
H      17.07502156      24.28330024       9.22693552 
H      13.69787021      30.66911642      19.28844147 
H      12.00530727      30.61531309      19.88016247 
H      12.67664972      29.24539777      18.92580791 
H      10.90877995      22.51126047      28.24349156 
H       9.48621809      21.43294409      28.08028663 
H      10.29236594      22.10084306      26.62135284 
H      11.18544078      10.56482736      22.04417313 
H      11.57253460      12.29144598      22.35006296 
H      12.25587516      11.02500002      23.40486991 
H      15.10556442      13.06238406      10.32238496 
H      14.97151030      13.41904570      12.07779850 
H      16.26051773      12.33669200      11.48400548 
H      17.35847309      19.88046847       7.50459846 
H      16.39044857      21.28702639       8.03797812 
H      16.22434518      19.72372849       8.88585783 
H      14.92299996      30.91896273      14.69850307 
H      13.78366837      30.53703092      16.02576852 
H      14.22864116      29.26726767      14.84631997 
H      10.37156125      25.48942280      26.82739956 
H      10.97156810      26.24995827      25.32618834 
H      11.13604640      27.10573278      26.89429589 
H      10.84833600      13.07313174      25.56371993 
H      10.82826979      14.83600515      25.86965697 
H      11.06565038      13.68729347      27.23092000 
H      14.56128260      10.51911409      13.96231451 
H      14.07605737      10.83385053      15.65487865 
H      14.88338455       9.28856143      15.22206105 
H      21.48791000      17.10526380       8.21510211 
H      22.65338241      16.33367815       9.33448621 
H      22.41798917      18.10626843       9.37754101 
H      19.71291246      30.50016966      13.03515304 
H      21.20874186      29.52323672      12.91468149 
H      20.63557636      30.07606119      14.51573983 
H      17.13008363      29.87482067      26.61249945 
H      16.62001681      28.35089454      27.40071298 
H      15.42578835      29.66025597      27.11852210 
H      14.07256175      15.95627565      30.54614805 
H      15.44946065      17.06070277      30.85007530 
H      15.69063306      15.58309550      29.86768374 
H      17.90674184       7.87016228      19.01237280 
H      18.91635178       8.34059398      20.41463644 
H      19.35758645       8.89843496      18.77234831 
H      19.94320219       8.34643436      14.42359969 
H      18.59351524       9.32443333      15.09242529 
H      19.52153439       8.22782161      16.15838556 
H      21.22754707      13.33495946       9.87728105 
H      20.89452188      11.62385389      10.28726846 
H      22.25692146      12.48340410      11.07749902 
H      22.05371143      21.87225534       7.33253080 
H      20.70912952      21.09578020       8.23997075 
H      22.16819682      20.14873860       7.80027846 
H      21.42342033      26.80134668       8.96218694 
H      22.57116611      26.79154210      10.34561371 
H      21.12213537      27.85511427      10.37711730 
H      19.42492714      31.95009585      15.86926222 
H      18.93242205      33.02681796      17.21207215 
H      17.91493529      31.61317118      16.76873901 
H      17.12869628      32.91220022      22.52821556 
H      18.56811084      31.98108200      23.05106243 
H      16.99882662      31.76305960      23.89467271 
H      15.11803491      27.72946673      29.31603010 
H      14.53533927      26.57314325      30.54866559 
H      14.03496287      26.38593262      28.83464485 
H      14.49775760      19.78489905      31.53602273 
H      14.08724893      21.45994925      32.00770407 
H      15.79741367      21.01346010      31.70556435 
H      15.10059016      11.13178539      28.73155369 
H      14.29604354      12.50515386      27.90001990 
H      15.09372782      12.75536346      29.48271722 
H      17.22009884       8.26870491      22.85965217 
H      16.42289023       8.22448236      24.45933512 
H      18.08556391       8.88062225      24.30859122 
