646
Properties=species:S:1:pos:R:3 i=105 optimized=T E=-10337.7275552596 pbc="F F F" jobid=246_80-Ag-80_1-000003-PBE
Au      21.89311986      20.18828032      20.89649842 
Ag      24.71167578      20.19164686      21.81116069 
Au      20.42642239      22.70472108      20.44849926 
Au      19.71166066      20.99174324      22.74392232 
Au      20.01619520      18.16142007      21.86065774 
Ag      21.15385571      23.51725635      23.17946409 
Ag      20.38679461      21.77239459      25.41660891 
Ag      20.68726867      18.95683959      24.62943376 
Ag      20.94257491      16.13209597      23.73479954 
Ag      21.84595902      16.11158273      20.92848623 
Ag      22.71684214      16.12720636      18.08101458 
Ag      23.04607855      18.89701823      17.21251249 
Au      23.27073845      21.72971605      16.34499957 
Ag      22.61851521      23.49126903      18.59217958 
Au      21.83050714      25.18165677      20.87383989 
Ag      23.33720521      22.69437092      21.35459668 
Ag      22.60062646      20.97966984      23.63356168 
Au      22.87912284      18.15709774      22.78496852 
Ag      23.76018849      18.14414718      19.97452928 
Ag      24.03829633      20.94872034      19.08773561 
Ag      20.88193153      14.04444649      19.03138595 
Ag      21.81122400      14.04914681      16.17891143 
Ag      22.10755583      16.85679163      15.30976758 
Ag      22.36322992      19.71770250      14.40761405 
Ag      22.68703441      22.56474278      13.54218302 
Ag      21.98268790      24.31281316      15.83551173 
Au      21.20898530      26.07946808      18.13752958 
Ag      20.47832702      27.79155458      20.50097901 
Au      25.38442839      22.46263039      14.51997854 
Ag      24.79858868      24.26685250      16.73388690 
Ag      24.01535423      25.95331812      19.01088921 
Au      23.23882428      27.66979475      21.32306324 
Ag      22.57077230      26.07304563      23.64040384 
Ag      21.81093532      24.32525182      25.85073357 
Au      21.04480261      22.57338148      28.07201287 
Au      21.37743845      19.73814308      27.39591408 
Ag      21.60193044      16.95897542      26.49010394 
Ag      21.83348209      14.08717921      25.58077101 
Ag      22.82289269      14.02858398      22.81114368 
Au      23.65578121      14.07894121      20.00184463 
Ag      24.52163602      14.09552673      17.12357727 
Ag      24.94196137      16.81627300      16.22035966 
Ag      25.15490114      19.62450115      15.39920990 
Au      23.60853050      18.97410893      25.55908311 
Au      23.70016680      16.15550565      24.66449719 
Ag      24.78151794      16.08047283      21.87434345 
Au      25.54155658      16.08823739      19.01301635 
Ag      25.94455800      18.86125606      18.10795049 
Ag      26.08953894      21.65935722      17.23552978 
Ag      25.52733696      23.49089271      19.49287498 
Ag      24.68077626      25.18919201      21.75032485 
Ag      24.03948504      23.53109079      24.10144131 
Ag      23.22191776      21.79599987      26.31213597 
Ag      26.17048606      22.71145731      22.26293869 
Ag      25.45839941      20.99161832      24.55559787 
Ag      25.74205015      18.13897076      23.72386207 
Au      26.60654962      18.14452618      20.85186165 
Ag      26.85589240      20.97214899      19.97090265 
Ag      27.55412267      20.19360120      22.73448746 
Ag      27.55221396      15.25891515      21.22489105 
Ag      28.37645594      17.32500864      18.66219300 
Ag      28.59204936      19.99890242      17.71958800 
Ag      28.31562122      23.20922120      18.78465395 
Ag      27.59991079      24.96938596      20.86803193 
Ag      26.60437711      24.88456588      24.16264254 
Ag      25.85141504      23.34195324      26.38977322 
Ag      25.60395642      20.07358638      27.31431440 
Ag      25.80281660      17.34183792      26.60202150 
Au      26.73955133      15.34481958      23.90150637 
Au      28.47902779      17.50724085      22.94549049 
Au      29.19248253      19.40167365      20.54208318 
Ag      28.92786442      22.37412419      21.51857501 
Ag      27.99155940      22.33750249      24.54050286 
Ag      27.74490979      19.31838243      25.43339898 
Ag      25.54116982      13.33985860      22.15868858 
Ag      26.30521576      13.31281982      19.28781569 
Ag      27.26011809      15.13529776      16.96816603 
Ag      27.56446685      17.95904393      15.92571927 
Ag      27.69859180      20.79929544      14.95928134 
Ag      27.61523988      23.69365214      15.92422265 
Ag      26.81603874      25.66839574      18.12576152 
Ag      25.96368058      27.46178775      20.41930448 
Ag      25.23825832      27.45751744      23.43627233 
Ag      24.36950748      25.79265040      25.81738588 
Ag      23.48273480      24.08475187      28.13144192 
Ag      23.40822966      21.12837625      29.10302734 
Ag      23.58220297      18.18444599      28.32254719 
Ag      23.75120530      15.30765020      27.39023800 
Ag      24.67945547      13.53892293      25.02526056 
Ag      24.15013637      11.77361232      15.26443271 
Ag      23.94868695      14.84081097      14.33145215 
Au      24.16966670      17.62789584      13.51846098 
Ag      24.51661493      20.38733114      12.62107195 
Au      25.49901283      23.33655706      11.61291797 
Ag      24.17317125      25.10571935      14.05595886 
Ag      23.33616171      26.78736074      16.29534959 
Ag      22.63241272      28.53930870      18.60501825 
Ag      22.45883253      30.55489595      21.03969493 
Ag      21.17940157      28.58938606      23.22375977 
Ag      20.37243479      26.84650278      25.44230237 
Ag      19.67532872      25.12885053      27.71726361 
Ag      19.39777566      23.53612450      30.42403996 
Ag      19.28537621      20.52028047      29.21993444 
Ag      19.46572242      17.69938652      28.31609639 
Ag      19.75029015      14.90346437      27.45175137 
Au      20.58107273      11.79107700      27.05666999 
Ag      20.97006967      11.98842565      23.73465005 
Ag      21.80992484      12.01438605      20.94052020 
Ag      22.75659159      12.02059844      18.14580893 
Ag      29.55639382      14.41544407      23.33866573 
Ag      31.14277847      18.44736955      18.16389541 
Ag      30.50992776      24.78863538      20.20504722 
Ag      28.45992089      24.81046118      26.57052032 
Ag      27.80416557      18.40253522      28.58064013 
Ag      28.93577305      27.50012411      18.96460872 
Au      30.23427765      18.44070552      14.82732281 
Ag      28.06260390      11.88318262      21.67374096 
Ag      25.39120120      16.51752893      29.88926832 
Ag      25.95764710      26.26594069      28.22987767 
Au      26.55171758      26.73135941      15.27765885 
Ag      23.14253605      28.55127825      25.55705402 
Ag      21.55465082      18.89961173      30.47304153 
Ag      23.85902303      11.04327599      23.26141487 
Ag      26.87402547      15.79780463      13.89860523 
S      29.54404777      22.66825109      26.48310227 
S      29.47691638      18.22252314      26.87469603 
S      30.72356736      16.46968828      22.85377832 
S      31.54811607      19.94667980      20.01479646 
S      30.87540675      23.73143432      22.33757514 
S      27.84423903      27.10173157      26.98669707 
S      30.70998954      26.07224414      18.17559114 
S      31.31150258      16.92704329      16.29150316 
S      28.92511788      12.16172510      23.90611000 
S      26.56882532      18.47916341      30.64498900 
S      27.77355244      26.62924584      22.78946768 
S      29.63238464      22.16719530      16.89761954 
S      28.99815240      14.94836329      19.17881538 
S      26.77214562      15.00946519      26.36505836 
S      25.90467920      22.16591139      28.64529131 
S      24.12698148      25.89172676      29.71761435 
S      27.38659465      29.25667483      19.44249045 
S      29.24499396      19.84020692      13.22730221 
S      27.33722992      11.07673060      19.54009022 
S      24.17849880      14.46510950      29.67902421 
S      22.55206536      20.89966636      31.41888664 
S      24.85459642      29.74781060      24.32104929 
S      28.11952851      25.37522391      14.14742219 
S      27.81668568      13.82715067      14.94383490 
S      24.44169419      11.15837019      25.61357066 
S      20.26581546      16.83664775      30.50195141 
S      21.36039146      28.30924031      27.18651909 
S      25.15280956      28.46811378      16.04857209 
S      26.19128997      17.31222491      12.12525882 
S      23.31800791      10.04607581      21.12263935 
S      20.25024302      10.20355007      25.34533271 
S      20.87957407      13.20562310      28.91107233 
S      18.29436091      21.56638162      31.25563298 
S      20.48002976      25.64104045      30.01819070 
S      20.97562337      31.05310013      22.86876587 
S      23.96521144      30.56300681      19.16622727 
S      24.59035740      25.51311454      11.61282439 
S      26.52467843      21.23649811      11.35584914 
S      24.02762660      12.70288527      13.04900999 
S      24.53976044      10.51861991      17.26988530 
C      31.26105971      22.99425882      25.91869582 
C      30.82326473      19.37852908      27.34225966 
C      31.71605844      16.89911045      24.33462745 
C      32.67689834      19.06646320      21.16382369 
C      32.45252852      22.80508827      22.17263909 
C      29.00204230      27.71424861      28.28551110 
C      32.23229709      27.09643371      18.36454798 
C      33.07019161      16.96088610      15.74524293 
C      30.47263247      11.15953958      23.91396270 
C      27.70811943      17.84350824      31.94928856 
C      29.41982426      27.10217619      23.46558385 
C      31.44821541      22.45518112      17.00984805 
C      30.80604197      14.71716250      19.43415115 
C      28.47578414      14.64034343      26.94571524 
C      27.44047519      22.13334777      29.66058331 
C      24.79209863      24.92128103      31.12958705 
C      27.99371609      30.08283272      20.96844874 
C      30.41727004      21.24003285      13.02158111 
C      28.80196049      11.19206875      18.43623864 
C      25.41852276      13.13878998      29.39740707 
C      23.88445708      20.36184673      32.56186601 
C      26.14909244      30.21982908      25.53602395 
C      29.74884684      26.16472885      14.45118464 
C      29.62786386      13.85614627      14.64010659 
C      26.09957515      10.38840329      25.79694975 
C      18.92615509      17.20887009      31.70813480 
C      20.46239386      29.91114132      27.06428630 
C      24.75732862      29.39314712      14.50868327 
C      25.63985674      16.18229354      10.78421327 
C      22.23905670       8.62811693      21.58411184 
C      21.47770857       8.87278061      25.65167665 
C      19.67535054      12.63682519      30.17269078 
C      19.14008806      21.15386861      32.83490081 
C      19.42333821      26.96026264      30.73174173 
C      21.94798503      32.08887520      24.03574853 
C      23.42629463      31.95814576      18.10048826 
C      26.00566935      26.63633867      11.28217135 
C      26.35327579      20.80770414       9.58040452 
C      25.64792099      12.32794798      12.26425119 
C      23.82515682       8.84873630      17.00670969 
Ag      19.02139487      20.19490141      19.99620807 
Ag      16.18218182      20.22603523      19.08013596 
Au      21.16529054      20.96587219      18.15711244 
Ag      20.89945725      18.15006495      19.02683580 
Ag      19.76262001      23.51371686      17.72250223 
Ag      20.52467206      21.77121754      15.45208704 
Ag      20.21254566      18.96885730      16.29606659 
Ag      19.95893003      16.14829681      17.18944762 
Ag      19.02994108      16.12565057      19.95281744 
Au      18.20186184      16.16345860      22.78900218 
Ag      17.86066837      18.93216955      23.68285869 
Ag      17.63456218      21.74615261      24.54514301 
Ag      18.28278775      23.50616764      22.30419491 
Ag      19.05792578      25.19216693      20.02502437 
Ag      17.56183437      22.71675773      19.54389859 
Ag      18.30316327      20.98665344      17.27808900 
Au      18.00708241      18.18423999      18.10946472 
Ag      17.13812326      18.19475844      20.90780816 
Ag      16.85254845      20.97974839      21.79722144 
Ag      20.00566081      14.02062428      21.90001970 
Au      19.10421166      14.04267822      24.69093978 
Ag      18.78215571      16.86948924      25.60855529 
Ag      18.56221177      19.69809645      26.49596096 
Ag      18.26701250      22.57247083      27.33609353 
Ag      18.95664856      24.33241199      25.05722561 
Ag      19.73510738      26.08380837      22.77754734 
Au      15.57576179      22.53298091      26.36126888 
Ag      16.12722803      24.32424267      24.15852690 
Ag      16.91727003      25.99958011      21.89794164 
Au      17.74774909      27.69433372      19.66549638 
Ag      18.39358755      26.07270866      17.27555076 
Ag      19.13544292      24.34190525      15.03956345 
Ag      19.91643356      22.57113972      12.77713378 
Ag      19.55610781      19.75828019      13.50304220 
Au      19.30027008      16.97981753      14.45043779 
Ag      19.04644594      14.12011150      15.35958348 
Ag      18.05103878      14.02639199      18.08294089 
Ag      17.21707085      14.09015170      20.90176151 
Ag      16.39694816      14.10780221      23.77370186 
Ag      15.99498487      16.86198887      24.70553456 
Ag      15.80214705      19.65428427      25.52297955 
Ag      17.30133542      18.99528095      15.32499553 
Ag      17.15505620      16.17711506      16.25229537 
Ag      16.14102566      16.09190754      19.02508155 
Au      15.39107082      16.14922650      21.89486748 
Ag      14.95584341      18.90896098      22.78717241 
Au      14.79210925      21.70324644      23.64109851 
Ag      15.38480301      23.51908632      21.39834522 
Ag      16.23382516      25.21985584      19.14741046 
Ag      16.87505081      23.55985731      16.80596990 
Au      17.73654969      21.81673553      14.60329467 
Ag      14.71305290      22.75521932      18.64009543 
Ag      15.44443231      21.03807760      16.31203528 
Ag      15.17678413      18.19432115      17.17576364 
Ag      14.27680901      18.16355194      20.03184167 
Ag      13.99301515      20.97797155      20.92533070 
Ag      13.36930945      20.22371582      18.19653598 
Au      13.37669459      15.35945365      19.63390968 
Ag      12.53127647      17.42306756      22.26493850 
Ag      12.24156970      20.06282371      23.20201893 
Ag      12.55301842      23.28555893      22.03916553 
Au      13.26864809      25.01299432      19.96646215 
Ag      14.29439705      24.94989511      16.72481986 
Au      15.01040212      23.38634862      14.54135156 
Ag      15.23509291      20.01644709      13.53547254 
Au      15.08735975      17.36792572      14.29551146 
Ag      14.18567556      15.43723791      16.99319970 
Ag      12.38551272      17.56862712      17.93034232 
Ag      11.64738392      19.43748119      20.33397895 
Ag      11.93340954      22.40117170      19.32246613 
Ag      12.88953282      22.35505741      16.35994486 
Ag      13.15678238      19.36055038      15.50283478 
Ag      15.33196862      13.36190247      18.72254879 
Ag      14.55906991      13.41905447      21.63823385 
Ag      13.66933965      15.22066921      23.94092270 
Ag      13.39226624      18.02405516      24.99314191 
Au      13.26853741      20.87769629      25.91621687 
Ag      13.28892550      23.77040130      24.90160052 
Ag      14.10243677      25.71228150      22.68082848 
Ag      14.97830092      27.50485315      20.41215414 
Au      15.87991922      27.42602363      17.44393057 
Ag      16.55726160      25.81482599      15.08619578 
Ag      17.38966445      24.04680065      12.83397543 
Ag      17.52020829      21.09043962      11.87463529 
Ag      17.34968356      18.17314339      12.60370563 
Ag      17.21068486      15.31898026      13.47717881 
Ag      16.22430957      13.53376868      15.82518378 
Ag      16.74639352      11.76021629      25.62590410 
Au      16.94256766      14.86251690      26.57335882 
Ag      16.69881167      17.63670152      27.44694848 
Au      16.47757809      20.44263273      28.23785479 
Ag      15.57211755      23.28654827      29.29973471 
Ag      16.82045153      25.09374015      26.89165642 
Ag      17.61125670      26.80326114      24.63353682 
Ag      18.32896555      28.55206435      22.38133598 
Ag      18.42068955      30.61322755      20.03962965 
Au      19.81034453      28.58914733      17.75121810 
Au      20.58438906      26.85773860      15.47940995 
Ag      21.29262289      25.13359767      13.20655715 
Ag      21.68114830      23.45030623      10.49815335 
Ag      21.69432458      20.50359923      11.69772574 
Ag      21.46230713      17.71421398      12.58475125 
Ag      21.09421136      14.91201830      13.44003227 
Ag      20.44823814      11.87278497      13.90979351 
Au      19.95656843      12.02098009      17.19239662 
Au      19.09505008      12.05346104      19.99697582 
Ag      18.15623789      11.98878258      22.76239332 
Ag      11.37665649      14.47296360      17.60329549 
Ag       9.73339793      18.46193664      22.74252151 
Ag      10.34338897      24.87462588      20.65381246 
Ag      12.36802851      24.73024936      14.30539078 
Au      12.93106785      18.38182818      12.28567329 
Ag      12.04154204      27.59675868      21.75350209 
Ag      10.71014792      18.77755508      25.88956541 
Au      12.92942906      11.74658645      19.13118959 
Ag      15.47893023      16.53031747      11.04714828 
Ag      14.94337193      26.17205449      12.63813816 
Ag      14.51225355      26.64042956      25.54865928 
Ag      17.81363327      28.60034072      15.32671388 
Ag      19.33448452      18.97399282      10.44580858 
Ag      17.03827782      11.08026382      17.63476302 
Ag      14.08291077      15.80157592      26.98989748 
S      11.24963919      22.60396503      14.48012660 
S      11.42027464      18.21395283      14.07863427 
S      10.12510618      16.48524162      18.03355443 
S       9.24822658      19.88987499      20.87350829 
S       9.89617648      23.67208585      18.61791440 
S      12.98613596      26.99968056      13.78144044 
S      10.26535043      26.23429043      22.64391600 
S       9.62180992      17.01093762      24.66344918 
S      12.10408807      12.24906357      16.97240598 
S      14.24646532      18.48837713      10.32815921 
S      12.98961026      26.60406199      18.04277637 
S      11.13468640      22.27795974      23.80964374 
S      11.96092806      15.03773598      21.67891093 
S      14.23505787      15.01378921      14.54675047 
S      14.97132087      22.16853775      12.32112559 
S      16.83825843      25.82760967      11.20400797 
S      13.52886922      29.37935141      21.16611043 
S      11.54636642      20.30426981      27.54674087 
S      13.73281404      11.09442212      21.23787965 
S      16.72174171      14.48808538      11.18400665 
S      18.32252127      20.99203390       9.53695641 
S      15.99189393      29.70250696      16.53918752 
S      12.77093376      25.39242830      26.69169902 
S      13.08667222      13.85676899      25.90880376 
S      16.45349899      11.12689039      15.27836524 
S      20.55722473      16.88152232      10.42923192 
S      19.62707332      28.28508047      13.73050442 
S      15.94354114      28.56405191      25.15950796 
S      14.66495397      17.24808136      28.85116348 
S      17.58568665      10.10988432      19.80078516 
S      20.72174010      10.23625505      15.65036641 
S      20.04540465      13.20386642      11.96066299 
S      22.71630971      21.45105260       9.62988556 
S      20.51277739      25.51620582      10.87277192 
S      19.85223474      31.01552660      18.14090775 
S      16.92098313      30.55933758      21.91118822 
S      16.33570866      25.57101607      29.29815288 
S      14.53662336      21.12409760      29.59067986 
S      16.83355028      12.72776401      27.83065463 
S      16.36432669      10.48504952      23.63363335 
C       9.54138512      22.92883321      15.06663752 
C      10.01878725      19.31634329      13.65365102 
C       9.09476682      16.83114302      16.55482624 
C       8.10323310      18.96483409      19.77714734 
C       8.33344072      22.74122728      18.85054421 
C      11.86637201      27.54870514      12.42349594 
C       8.77449316      27.30913468      22.49715461 
C       7.87192934      17.05133229      25.24549395 
C      10.59045757      11.21189672      16.82132644 
C      13.15649876      17.86020728       8.98212684 
C      11.28389403      26.79924891      17.38776950 
C       9.35222167      22.59087337      23.48233637 
C      10.16769726      14.74157750      21.40193372 
C      12.55172119      14.66404194      13.89161268 
C      13.40172177      22.22115965      11.36471512 
C      16.22558577      24.84910512       9.77337458 
C      12.89989842      30.04225990      19.57215840 
C      10.45049480      21.77568291      27.49444545 
C      12.24963056      11.07766237      22.32325269 
C      15.49809942      13.15121335      11.48327561 
C      16.96279327      20.46502954       8.41988430 
C      14.62278306      30.02054480      15.36241840 
C      11.18604843      26.25543471      26.35263213 
C      11.27788078      13.92474138      26.21952277 
C      14.81775638      10.31449472      15.08870788 
C      21.89343371      17.17319229       9.19776004 
C      20.59121733      29.84458797      13.86082148 
C      16.33614933      29.14069075      26.86265753 
C      15.20497888      16.04321682      30.13244808 
C      18.71230208       8.72205896      19.37308351 
C      19.45813660       8.94050209      15.33624915 
C      21.25950699      12.69596904      10.68229212 
C      21.79396609      21.05354773       8.08945853 
C      21.52606430      26.85477166      10.13064487 
C      18.88058924      31.99523535      16.92916317 
C      17.41196194      31.90131338      23.06083270 
C      14.83824131      26.59559550      29.59486340 
C      14.80184641      20.56239456      31.31292345 
C      15.20061191      12.39596469      28.60203236 
C      17.10057087       8.82807366      23.92536370 
H      31.74794516      22.02614135      25.74815931 
H      31.80014698      23.53605159      26.70377950 
H      31.26615982      23.57200629      24.98805488 
H      31.55598366      19.38587028      26.52573111 
H      31.30574633      19.01576293      28.25655791 
H      30.43946738      20.39353091      27.49272918 
H      32.14647256      17.89568896      24.17660302 
H      32.52368828      16.16519535      24.43702499 
H      31.09640273      16.91167966      25.23783101 
H      33.66827801      19.00608121      20.70021613 
H      32.30137917      18.06365603      21.39388246 
H      32.74218054      19.65207950      22.08890905 
H      33.28239106      23.51802298      22.11134065 
H      32.44109569      22.16385200      21.28486604 
H      32.57514480      22.18421481      23.06865793 
H      29.96961945      27.92320755      27.81462058 
H      29.13798624      26.98206792      29.08646505 
H      28.59330014      28.64139416      28.70386073 
H      32.21642631      27.88479995      17.60304662 
H      33.10419407      26.45200828      18.20304322 
H      32.29492991      27.55038026      19.35759227 
H      33.13753619      16.48691693      14.75924980 
H      33.65599108      16.38350568      16.47018159 
H      33.45679488      17.98235534      15.69105508 
H      30.19853366      10.09819351      23.90577796 
H      31.02509151      11.38486105      24.83355948 
H      31.10386686      11.37920127      23.04834530 
H      28.42327429      18.63592424      32.19885759 
H      28.25140901      16.95493168      31.61564940 
H      27.11395635      17.59672526      32.83682325 
H      29.86601961      27.85040274      22.79989886 
H      30.06605344      26.21855492      23.51532188 
H      29.26997068      27.52262771      24.46670361 
H      31.93399276      21.95687653      16.16305184 
H      31.82567465      22.04034419      17.95132837 
H      31.62792290      23.53586486      16.97430598 
H      31.31323184      14.90601894      18.48100048 
H      30.98193337      13.68372612      19.75612181 
H      31.17115686      15.40812040      20.20177632 
H      28.80400105      13.70809821      26.47094525 
H      28.44185050      14.51968864      28.03536812 
H      29.15271343      15.46243733      26.69012654 
H      27.51578863      23.08147228      30.20577551 
H      28.31132137      22.01239100      29.00656926 
H      27.36915769      21.29405229      30.36209160 
H      23.93418147      24.61181259      31.73934170 
H      25.45826818      25.55469996      31.72535106 
H      25.32474853      24.02712815      30.78811146 
H      28.90833428      30.64087582      20.74009488 
H      28.18155360      29.36118511      21.77088293 
H      27.20850479      30.77709113      21.29256758 
H      31.33653050      20.88108378      12.54629678 
H      30.64491395      21.71882687      13.97981714 
H      29.91785922      21.96342913      12.36462679 
H      28.45355638      10.99302433      17.41509667 
H      29.53615376      10.43379138      18.72969697 
H      29.25213750      12.19031874      18.47090333 
H      24.86693635      12.23746198      29.10245532 
H      25.96227186      12.95097620      30.32968009 
H      26.11767680      13.40543317      28.59715819 
H      24.40803956      21.26056687      32.90964338 
H      24.59972501      19.69864608      32.06287660 
H      23.43475761      19.84856583      33.41921008 
H      26.96703273      30.69425795      24.98032262 
H      26.53770093      29.34570817      26.07025229 
H      25.73044463      30.93807058      26.24970674 
H      29.76712845      27.15365623      13.98040206 
H      30.50379653      25.52265642      13.98065504 
H      29.96261203      26.25093611      15.52241191 
H      29.81488899      13.69509024      13.57257751 
H      30.07324757      13.03605216      15.21611859 
H      30.07511184      14.80406075      14.95817470 
H      26.01490427       9.31287512      25.60511048 
H      26.42586357      10.54869161      26.83168363 
H      26.83479244      10.83179397      25.11670143 
H      18.19047446      16.39737088      31.65605785 
H      18.43156718      18.16067444      31.48451261 
H      19.35710495      17.24366830      32.71529680 
H      19.54943539      29.82994034      27.66636205 
H      20.19421834      30.14918618      26.02894567 
H      21.09708780      30.70521200      27.47400135 
H      25.65957594      29.90770366      14.15961007 
H      23.98837479      30.13275423      14.76380994 
H      24.37879480      28.72839629      13.72539670 
H      25.11197312      16.78016413      10.03178275 
H      24.97138278      15.40211860      11.16514950 
H      26.52703314      15.72431050      10.33124908 
H      21.81597025       8.21403773      20.66102036 
H      21.42415825       8.93728541      22.24766470 
H      22.84805993       7.86259031      22.07843560 
H      21.44537631       8.18640596      24.79716927 
H      21.18770874       8.33626615      26.56199739 
H      22.48632727       9.28669907      25.75990044 
H      20.03046965      11.69248290      30.60025109 
H      18.67525397      12.50801922      29.74430349 
H      19.65545347      13.41007599      30.95072991 
H      18.78679436      20.17020449      33.16614558 
H      18.86273686      21.90874007      33.57932692 
H      20.22805758      21.13091496      32.70891072 
H      19.75169794      27.91145796      30.29525895 
H      19.57748035      26.98349526      31.81667990 
H      18.36380235      26.79154436      30.50873379 
H      22.08844875      33.07676967      23.58266251 
H      22.92082013      31.63353622      24.25249255 
H      21.37295115      32.19363989      24.96318917 
H      23.94691683      31.86121853      17.13990321 
H      23.72197020      32.89957873      18.57754135 
H      22.34218570      31.94747972      17.94018807 
H      26.32356599      26.49935300      10.24255011 
H      26.83824510      26.43302203      11.96401817 
H      25.65285150      27.66492908      11.42384085 
H      27.02617340      21.44148112       8.99208612 
H      25.31929173      20.93541315       9.24060249 
H      26.65598185      19.75788062       9.48185185 
H      25.72159428      12.90396195      11.33435267 
H      25.67615664      11.25755303      12.03082368 
H      26.48007376      12.58997298      12.92702499 
H      24.49834478       8.27702849      16.35779838 
H      22.82877472       8.90509614      16.55431666 
H      23.76434651       8.36504127      17.98920919 
H       8.99613917      23.47957093      14.29211997 
H       9.54651912      23.49718464      16.00332777 
H       9.05250726      21.96104734      15.23401018 
H       9.51096313      18.92409778      12.76583052 
H      10.36429948      20.34142420      13.48042561 
H       9.32727810      19.30238580      14.50530029 
H       8.31460484      16.06564305      16.47678360 
H       9.70007358      16.84429817      15.64236414 
H       8.62480328      17.81281466      16.69285462 
H       7.94133128      19.57023366      18.87668839 
H       7.14787632      18.82542170      20.29509621 
H       8.52473192      17.99521404      19.48979347 
H       8.17388774      22.12371777      17.95787989 
H       7.50668308      23.45350680      18.94885460 
H       8.38435788      22.09516083      19.73360803 
H      12.27952934      28.46226707      11.98031626 
H      10.88290055      27.76719303      12.85564485 
H      11.76018418      26.78395172      11.64894656 
H       7.88770184      26.69908489      22.70499741 
H       8.68710754      27.74913162      21.49977092 
H       8.84894175      28.10868460      23.24339617 
H       7.27413303      16.41377880      24.58381992 
H       7.46470213      18.06625379      25.23726830 
H       7.83674022      16.65149336      26.26554327 
H      10.08451916      11.49405341      15.89044535 
H       9.91302950      11.36179694      17.66659014 
H      10.89151205      10.15921132      16.77019936 
H      13.78054051      17.70529894       8.09390342 
H      12.39361883      18.61720901       8.76749399 
H      12.67405617      16.91921935       9.26063184 
H      11.36766766      27.28721521      16.40886073 
H      10.71647565      27.43231721      18.08072085 
H      10.78513156      25.83004969      17.28410133 
H       9.18390533      23.67396981      23.49888069 
H       8.77016750      22.10513056      24.27473569 
H       9.06472715      22.17471912      22.51070741 
H      10.03016212      13.70338050      21.07786997 
H       9.78585687      15.42330740      20.63387492 
H       9.65333466      14.91697169      22.35442171 
H      12.60961670      14.62066299      12.79753001 
H      11.85483968      15.45384413      14.19132967 
H      12.23264314      13.69687037      14.29727942 
H      13.45008068      21.43806239      10.59927387 
H      13.31275108      23.20919796      10.89780887 
H      12.55011068      22.04559667      12.03138307 
H      15.59949443      25.48803902       9.14080217 
H      15.65922493      23.96957432      10.09891610 
H      17.10493872      24.51642599       9.20798099 
H      13.67163358      30.70989710      19.16938310 
H      11.98048226      30.60910566      19.75529389 
H      12.71278701      29.23832776      18.85059094 
H      10.94183170      22.57495051      28.06281310 
H       9.49625345      21.51417693      27.96565577 
H      10.29016672      22.11335319      26.46440691 
H      11.58738848      10.25874030      22.02226176 
H      11.71540035      12.03321436      22.29047370 
H      12.61593455      10.90357945      23.34292562 
H      14.92142689      12.97648370      10.56830844 
H      14.82663181      13.39850014      12.31278105 
H      16.06301698      12.24706391      11.74232953 
H      17.39130129      19.96462836       7.54430707 
H      16.42712632      21.36635763       8.09810129 
H      16.26305477      19.79305547       8.92840362 
H      14.92690850      30.82925244      14.68774344 
H      13.74790585      30.33691319      15.94315663 
H      14.36659209      29.12626743      14.78424660 
H      10.38052511      25.65385064      26.79076260 
H      11.00720656      26.36474042      25.27712775 
H      11.20552768      27.24125149      26.83038183 
H      10.81067795      13.11315051      25.64869493 
H      10.84803838      14.88126789      25.90219160 
H      11.09369225      13.76979014      27.28856469 
H      14.50920234      10.42918011      14.04250021 
H      14.06400436      10.77101340      15.73945853 
H      14.91720272       9.24886005      15.32356634 
H      21.45062333      17.21004602       8.19580267 
H      22.59191985      16.32970828       9.25420866 
H      22.43354614      18.10521055       9.39817013 
H      20.02697225      30.64022625      13.35974333 
H      21.54965011      29.69902041      13.34848264 
H      20.77283386      30.11704655      14.90603691 
H      17.10422508      29.91941743      26.78372073 
H      16.70901053      28.32593191      27.49368211 
H      15.43108736      29.56898930      27.30843766 
H      14.33252054      15.48718381      30.49453329 
H      15.64221947      16.61073466      30.96292860 
H      15.95261284      15.34527763      29.73985325 
H      18.11511381       7.91716863      18.92838641 
H      19.17872178       8.36311284      20.29823363 
H      19.49111617       9.03997202      18.67171223 
H      19.79271388       8.35061238      14.47486028 
H      18.47716088       9.38384459      15.13236337 
H      19.39686849       8.29384231      16.21932132 
H      21.27520792      13.48545462       9.92105172 
H      20.91919826      11.75744092      10.23009047 
H      22.26073567      12.56497504      11.10814306 
H      22.09074177      21.77382643       7.31856008 
H      20.71111835      21.10004850       8.24944398 
H      22.07471743      20.04335417       7.76920038 
H      21.36470807      26.85455167       9.04648961 
H      22.59118774      26.71852737      10.34769934 
H      21.17413639      27.80355734      10.55330669 
H      19.40667468      31.98707490      15.96752523 
H      18.82755130      33.02343200      17.30668165 
H      17.87165945      31.58943092      16.80252553 
H      17.02729538      32.85228449      22.67473066 
H      18.50056997      31.95641164      23.17374518 
H      16.94568398      31.68444724      24.02978001 
H      15.10780591      27.64780060      29.44573555 
H      14.52012601      26.44657182      30.63290945 
H      14.02739853      26.32337503      28.91026828 
H      14.62550095      19.47992272      31.33439350 
H      14.06896044      21.06818635      31.95279225 
H      15.81843954      20.78942518      31.65350158 
H      15.16823148      11.33297949      28.86832657 
H      14.38150478      12.63664173      27.91545844 
H      15.11353381      13.00241603      29.51093606 
H      17.20645206       8.33976950      22.94913482 
H      16.41672812       8.24545365      24.55325411 
H      18.07814716       8.90400325      24.41421251 
