646
Properties=species:S:1:pos:R:3 i=107 optimized=T E=-10058.262104758 pbc="F F F" jobid=246_80-Ag-50_0-000010-PBE
Ag      21.86303479      20.20917587      20.90589845 
Au      24.70666104      20.23210174      21.83835861 
Ag      20.41383394      22.72111074      20.44968574 
Ag      19.69319528      20.98110549      22.70437976 
Ag      19.98120435      18.17385022      21.86879246 
Au      21.13992221      23.54366998      23.16399862 
Au      20.33448170      21.77810188      25.36151736 
Ag      20.68829113      18.98301523      24.60391566 
Au      20.89766949      16.19859699      23.73010957 
Au      21.90429182      16.13772023      20.92545306 
Ag      22.77323745      16.10555769      18.08616288 
Au      23.04251656      18.92213190      17.19481862 
Ag      23.29250316      21.72436270      16.31007723 
Au      22.58736219      23.49644073      18.59771224 
Au      21.80539932      25.20748370      20.86354203 
Ag      23.32957859      22.72335714      21.33790381 
Au      22.60131222      21.03959575      23.63732885 
Au      22.86749388      18.20557798      22.80568919 
Ag      23.77682827      18.16591938      19.98207594 
Au      24.06641026      20.98200831      19.06950777 
Ag      20.91222891      14.02957697      19.02247532 
Ag      21.87031726      14.02812958      16.17974993 
Ag      22.15487019      16.86375918      15.30067480 
Ag      22.36478536      19.70822188      14.40106251 
Ag      22.66245287      22.55357123      13.54763874 
Au      21.95159062      24.34710697      15.82775368 
Ag      21.14447358      26.08102723      18.13417094 
Au      20.41542935      27.78743885      20.44551899 
Ag      25.37750376      22.48196812      14.45949554 
Au      24.79046061      24.24854296      16.69646582 
Ag      23.97695573      26.01089929      18.99006183 
Ag      23.14374085      27.81477493      21.25574004 
Ag      22.51631636      26.12483459      23.62644955 
Ag      21.74508334      24.39276097      25.86399143 
Au      20.92320255      22.63229406      28.08620916 
Au      21.28849172      19.72907629      27.41136403 
Au      21.62980403      17.00626151      26.53849621 
Au      21.89787480      14.18298993      25.60060111 
Au      22.83888438      14.06350216      22.84528985 
Ag      23.70216653      14.07848809      20.01100044 
Ag      24.55958228      14.08960423      17.18725835 
Au      24.95362383      16.82525152      16.24134202 
Ag      25.14245092      19.63119881      15.35596933 
Au      23.59688680      19.01498566      25.63435296 
Ag      23.75824258      16.22755347      24.69507462 
Ag      24.76461964      16.13985489      21.91367157 
Ag      25.56977926      16.09770176      19.07614121 
Au      25.94645192      18.89923774      18.14987943 
Ag      26.14089664      21.67387154      17.19775412 
Au      25.51362107      23.55127510      19.47450302 
Au      24.67334168      25.23587970      21.69750515 
Ag      24.05027594      23.58516158      24.09821563 
Au      23.19449830      21.85154955      26.33144598 
Ag      26.19344354      22.77315154      22.24688621 
Ag      25.48269088      21.07177415      24.63310862 
Au      25.74236265      18.22040364      23.79101339 
Au      26.65885779      18.13366761      20.91866295 
Au      26.94060244      20.97616403      20.00344486 
Ag      27.55205681      20.25322620      22.75450950 
Au      27.58639495      15.30400872      21.37881032 
Au      28.44977876      17.42884799      18.64648702 
Au      28.73734185      20.02722765      17.75281145 
Au      28.29418899      23.31260933      18.74855341 
Ag      27.64931233      25.04669881      20.85992013 
Ag      26.64476124      24.97994355      24.15453789 
Au      25.96680325      23.45216239      26.38531771 
Au      25.60461785      20.12371919      27.44970078 
Ag      25.82670069      17.45008492      26.70253852 
Au      26.76141425      15.41486739      23.98825685 
Ag      28.49413892      17.58657786      23.10464262 
Ag      29.28411112      19.39186263      20.64781489 
Ag      28.97942410      22.36433713      21.45100060 
Ag      28.03184717      22.42586268      24.49102713 
Ag      27.74155418      19.42894383      25.48437683 
Au      25.52485415      13.39125113      22.20091307 
Ag      26.32990132      13.31585711      19.32284159 
Ag      27.27671194      15.19219556      16.97807279 
Au      27.56448960      18.01273486      15.91030157 
Au      27.64476040      20.87034040      14.92701700 
Ag      27.57891452      23.73043782      15.89767103 
Ag      26.81444294      25.73544584      18.08110151 
Ag      25.94526805      27.49074242      20.45477061 
Au      25.07455361      27.43189982      23.32055779 
Au      24.32995228      25.83654446      25.81069152 
Au      23.43005983      24.03866805      28.13335447 
Au      23.25505415      21.18928303      29.05821946 
Ag      23.56296767      18.23836304      28.41624738 
Ag      23.70148989      15.34870748      27.49663464 
Ag      24.69196974      13.51849796      25.10195344 
Ag      24.15870060      11.79296418      15.27554085 
Ag      24.05744459      14.85288992      14.37195715 
Au      24.18998611      17.60617176      13.39449404 
Au      24.47178223      20.45513397      12.62909037 
Ag      25.35045159      23.26222412      11.51386312 
Au      24.14913179      25.10128410      14.02828273 
Au      23.32591883      26.79794587      16.25402865 
Au      22.53134398      28.51742588      18.50909248 
Au      22.54089706      30.76213471      20.90927621 
Au      21.11952729      28.62691430      23.26642572 
Ag      20.29948821      26.92742880      25.46679276 
Au      19.53715299      25.16576144      27.68054395 
Ag      19.26622414      23.64202322      30.40623538 
Au      19.25202109      20.52424370      29.23527856 
Ag      19.42737536      17.68655092      28.44766837 
Au      19.78854684      14.93924278      27.47472067 
Ag      20.53791402      11.89526412      27.07412276 
Au      21.01754454      12.01091824      23.79108126 
Au      21.82270529      12.00401902      20.94430644 
Ag      22.76746152      12.00338409      18.17068974 
Au      29.69984991      14.41994595      23.45746784 
Au      31.36504283      18.34616712      18.13003511 
Ag      30.53392713      24.91718339      20.01821750 
Ag      28.68159028      24.74277813      26.51993141 
Au      27.99539387      18.37920606      28.63838256 
Ag      28.85097658      27.65518481      18.92197570 
Au      30.23432548      18.61302752      14.78855920 
Ag      28.04123173      11.98452903      21.68267616 
Au      25.32412333      16.58189861      30.12278894 
Ag      26.00608342      26.07012125      28.21401370 
Au      26.65801771      26.77669270      15.22869257 
Au      23.18823529      28.69519150      25.74700434 
Ag      21.48307857      18.97149908      30.58128355 
Ag      23.94291002      11.09900696      23.23912166 
Ag      26.98147208      15.78722181      14.01525205 
S      29.83235588      22.64999848      26.20578130 
S      29.49979901      18.22765565      26.84384165 
S      30.74279470      16.47677646      22.99432135 
S      31.70317805      19.67337707      20.03960125 
S      30.97030934      23.72090745      22.05659186 
S      28.01812719      26.95547404      27.19016768 
S      30.67514173      26.33224652      18.07251463 
S      31.28865627      17.01147640      16.17583514 
S      28.89689786      12.25760554      23.94159462 
S      26.69313306      18.45184074      30.60968366 
S      27.95786234      26.61088298      22.79819977 
S      29.77377600      22.18635456      17.10100979 
S      28.92793038      15.11381845      19.29602170 
S      26.56258427      15.05862887      26.41131372 
S      26.26676312      22.21987640      28.55242033 
S      24.14948844      25.71436260      29.73464744 
S      27.29787575      29.36036931      19.56373381 
S      29.35793773      20.19062120      13.28405199 
S      27.48689537      11.12288524      19.50579251 
S      24.00596312      14.66121179      29.88341399 
S      22.65120497      20.95974830      31.38668359 
S      24.91941108      29.60376893      24.40035423 
S      28.20023802      25.36781967      14.12735590 
S      27.85710012      13.74400101      15.04366642 
S      24.49307340      11.09810209      25.61976363 
S      20.22604403      16.90269695      30.68207533 
S      21.43191423      28.26117536      27.25666127 
S      25.16475241      28.44287458      15.99300392 
S      26.29051524      17.23987945      12.18981324 
S      23.33885073      10.08829665      21.08398065 
S      20.28729220      10.25217744      25.33529218 
S      20.72055811      13.29277764      29.02705943 
S      18.23951128      21.60279550      31.19699973 
S      20.31050287      25.77023811      29.94612002 
S      21.17177115      31.05511531      22.79554752 
S      23.85731875      30.57236833      18.97183352 
S      24.52647852      25.51888945      11.65186486 
S      26.37963790      21.10769898      11.20845193 
S      24.05243221      12.73962739      13.06457223 
S      24.55436775      10.52034173      17.26863949 
C      31.49827264      22.99491382      25.52472204 
C      30.90854613      19.31537196      27.29197095 
C      31.80055620      16.84688910      24.44458987 
C      32.84850724      18.74982805      21.13207787 
C      32.53111496      22.78431773      21.81698517 
C      29.11437428      27.40964477      28.59988030 
C      32.14928787      27.41378643      18.31094196 
C      33.02154097      16.96618067      15.56075159 
C      30.39412173      11.18756516      23.99414853 
C      27.79837563      17.81363046      31.93606033 
C      29.65326245      26.86063391      23.46654549 
C      31.52283670      22.38218351      17.61781701 
C      30.72903274      14.90964230      19.59208010 
C      28.20298120      14.57822979      27.09025451 
C      27.98295982      22.07725380      29.17435816 
C      24.80139658      24.68854243      31.11072897 
C      27.99018095      30.06848855      21.11346457 
C      30.54360726      21.59091733      13.33077350 
C      28.97392069      11.33864324      18.44861678 
C      25.20921521      13.27982792      29.73070345 
C      24.06949757      20.40417448      32.40507786 
C      26.36678277      29.86662178      25.49032511 
C      29.86807888      26.08003102      14.39781647 
C      29.67559368      13.76592984      14.78379253 
C      26.15769453      10.34529536      25.80038828 
C      18.87327048      17.30230249      31.86261984 
C      20.50569819      29.84982556      27.27416541 
C      24.72978674      29.33359645      14.44610847 
C      25.80094682      16.08604666      10.84503092 
C      22.23213837       8.69329727      21.53810447 
C      21.55003000       8.94954126      25.61103467 
C      19.42358967      12.81035243      30.22690539 
C      19.12113273      21.16900691      32.74993814 
C      19.22067395      27.08245951      30.61577767 
C      22.14246158      32.02461992      24.01255201 
C      23.28002269      31.91600489      17.86514147 
C      25.96543282      26.62893115      11.38830003 
C      26.01117795      20.55264466       9.50099281 
C      25.68530350      12.36695560      12.30326224 
C      23.81080735       8.86420673      16.99223589 
Au      19.01879923      20.20580037      20.01446876 
Ag      16.16084123      20.17708638      19.09154411 
Au      21.18140227      20.99121196      18.17003959 
Au      20.93007814      18.13527873      19.04546711 
Ag      19.75822837      23.52197626      17.73743491 
Ag      20.54097070      21.77987461      15.44352455 
Ag      20.23484074      18.97793589      16.29271113 
Ag      20.01198482      16.12068388      17.17725920 
Au      19.05895649      16.10828092      19.96151198 
Ag      18.15226710      16.09720772      22.84141949 
Ag      17.85333227      18.88031323      23.69996806 
Ag      17.57843074      21.72134151      24.51542963 
Ag      18.27538470      23.51243486      22.29308442 
Ag      19.00661248      25.23405948      20.02745044 
Ag      17.55712832      22.70312236      19.56093780 
Au      18.31774423      20.99779278      17.28665556 
Au      18.03175415      18.15539577      18.12999877 
Au      17.12795554      18.15982596      20.94191140 
Ag      16.84189291      20.96003157      21.81066279 
Au      20.03688893      14.02576333      21.86814119 
Ag      19.10105076      14.06463773      24.75704254 
Au      18.78615447      16.87236684      25.65550461 
Ag      18.53325075      19.71467737      26.50292994 
Au      18.19444902      22.55202837      27.29181362 
Ag      18.91828716      24.34098374      25.03981864 
Au      19.72632747      26.10743394      22.77404138 
Au      15.51946685      22.47473524      26.38746800 
Au      16.06955098      24.25617154      24.11831243 
Ag      16.87495765      26.00782108      21.88095997 
Ag      17.68456470      27.81028041      19.62453218 
Au      18.36568138      26.08582936      17.26531657 
Au      19.13844721      24.34535691      15.04107559 
Au      19.89856361      22.53645076      12.74358443 
Ag      19.54496646      19.72527683      13.48301262 
Au      19.34675883      16.96703271      14.44016507 
Au      19.10420909      14.10005180      15.36453100 
Ag      18.08136999      13.99507551      18.10281054 
Au      17.25359991      14.09495535      20.89096612 
Ag      16.34058361      14.06896058      23.84868134 
Au      15.92418605      16.81049703      24.71506836 
Au      15.77298608      19.63258493      25.50079570 
Au      17.31622542      18.96025710      15.34564307 
Au      17.18683957      16.17142014      16.25075362 
Ag      16.09534230      16.08106993      19.01906811 
Au      15.34415298      16.11063825      21.90665619 
Au      14.89883821      18.88456452      22.75944653 
Ag      14.74730946      21.65920668      23.65531498 
Ag      15.35765998      23.51433082      21.40636031 
Au      16.21392949      25.23770349      19.17176923 
Au      16.84163918      23.54241795      16.81850224 
Au      17.72419886      21.77972793      14.55537137 
Au      14.69884897      22.72739874      18.66269394 
Au      15.44313836      20.97916086      16.31656551 
Ag      15.16068468      18.12099522      17.15461910 
Au      14.22055787      18.14105634      20.00862636 
Ag      13.96437552      20.96805206      20.91872659 
Ag      13.34982223      20.20453027      18.17388750 
Au      13.23663989      15.32032910      19.60134547 
Ag      12.41496926      17.40740613      22.25326493 
Au      12.18982663      20.03759799      23.15778585 
Ag      12.56601705      23.24326624      22.11149981 
Ag      13.26252769      24.98541154      19.99053383 
Ag      14.24568957      24.96506752      16.71772498 
Au      15.00980544      23.37064737      14.51368448 
Ag      15.30805419      20.07375612      13.52502660 
Ag      15.09903650      17.35363396      14.26160090 
Au      14.06521627      15.36280939      16.99568475 
Ag      12.35515225      17.55408760      17.90467068 
Ag      11.62003899      19.40536470      20.25839765 
Ag      11.93426690      22.40876109      19.32877303 
Ag      12.91074769      22.36150094      16.36904074 
Ag      13.20991976      19.41111403      15.44558995 
Au      15.36584918      13.34031927      18.73457797 
Au      14.61715740      13.40364401      21.66026244 
Ag      13.58880803      15.16582905      23.92117898 
Ag      13.30719632      18.02278622      24.98653121 
Au      13.26279330      20.83802811      26.03001391 
Ag      13.26737835      23.69465039      24.96054274 
Ag      14.00988062      25.70150485      22.76608949 
Ag      14.89818850      27.43598557      20.39914123 
Au      15.78238869      27.47326595      17.51693449 
Au      16.51013075      25.81867158      15.06164386 
Ag      17.43634111      24.07121963      12.79579884 
Ag      17.51808915      21.12555002      11.79497128 
Au      17.32542152      18.17336151      12.56996359 
Ag      17.23891362      15.27597852      13.50434288 
Ag      16.24478751      13.52900987      15.85133480 
Au      16.61279498      11.64426697      25.61532900 
Ag      16.92221706      14.83753286      26.61292015 
Au      16.72818314      17.63060769      27.45680319 
Ag      16.36952313      20.42543962      28.30058753 
Ag      15.39726913      23.24312916      29.29757160 
Au      16.67056632      25.13079176      26.81612839 
Au      17.56137931      26.79294150      24.58311982 
Ag      18.32234742      28.55865827      22.37273291 
Au      18.31773231      30.72363585      20.00365974 
Au      19.68180979      28.58380388      17.65627247 
Ag      20.55027721      26.91296513      15.43439371 
Ag      21.22794058      25.13847982      13.18705722 
Au      21.39914113      23.64255254      10.36504086 
Au      21.66664995      20.46086408      11.68558088 
Au      21.49952149      17.68385656      12.55844702 
Ag      21.15393171      14.92812761      13.41324543 
Au      20.37599807      11.82543180      13.82781137 
Au      19.97609904      12.01800925      17.21221422 
Ag      19.11466863      11.93837506      19.98099694 
Au      18.21422191      12.10608867      22.78111414 
Au      11.15604171      14.38259223      17.48839090 
Au       9.52813738      18.42822387      22.66386381 
Ag      10.37174953      24.87934526      20.76814159 
Ag      12.37821437      24.75215087      14.31760043 
Au      12.99963839      18.39598279      12.29885960 
Au      11.98608248      27.67794650      22.03742767 
Au      10.60384574      18.59102408      26.00485104 
Au      12.85690695      11.79201133      19.22597867 
Au      15.60146234      16.54620571      10.83036704 
Au      14.95510468      26.39917195      12.61195046 
Au      14.22653380      26.74365978      25.66728362 
Ag      17.77544020      28.54797801      15.23921503 
Ag      19.26906646      18.96346504      10.40378658 
Ag      17.02489877      11.07981126      17.66316348 
Ag      14.01535755      15.82759933      26.98992924 
S      11.25062361      22.63450190      14.53169162 
S      11.48590656      18.21735471      14.08507893 
S      10.08752448      16.44153928      17.87509326 
S       9.20767898      19.81341600      20.79640996 
S       9.90337214      23.72527419      18.71795802 
S      12.99724485      27.02748952      13.79030777 
S      10.27066023      26.22490237      22.77193200 
S       9.57837432      17.02238109      24.56413476 
S      11.98972647      12.21077816      17.06437901 
S      14.29413781      18.46087067      10.32361972 
S      12.94049733      26.60411307      18.06661615 
S      11.09241811      22.17955435      23.84776452 
S      11.84547187      15.06657504      21.63632018 
S      14.22863544      15.01164878      14.56854985 
S      14.95213429      22.23108498      12.28856926 
S      16.83208710      25.95162114      11.27029966 
S      13.58280767      29.28503288      21.42156481 
S      11.49921305      20.09268179      27.56520251 
S      13.60291676      11.19368967      21.37510994 
S      16.87721485      14.60364944      11.12772119 
S      18.26118224      20.96078052       9.44348013 
S      15.98840571      29.66466843      16.49903850 
S      12.65685757      25.34178442      26.73405079 
S      12.94513354      13.90807060      25.94936325 
S      16.46122322      11.13312378      15.28650584 
S      20.48097364      16.85698910      10.47856281 
S      19.60432518      28.35057785      13.64096934 
S      15.73133282      28.41490794      24.93764270 
S      14.75491357      17.23524286      28.84195268 
S      17.59440578       9.98788549      19.76430910 
S      20.70725148      10.28226554      15.58020223 
S      20.07994361      13.18369509      11.93962247 
S      22.49149336      21.67619495       9.66853282 
S      20.39679421      25.69692791      10.89311346 
S      19.71863996      31.01383118      18.13458121 
S      16.94881894      30.60805212      21.90625254 
S      16.23750135      25.49860306      29.21666271 
S      14.38580390      21.10187126      29.67188798 
S      16.69696142      12.61446380      27.75101181 
S      16.49716427      10.53780559      23.53904670 
C       9.55803658      22.96285221      15.15950803 
C      10.09333126      19.32854298      13.64764073 
C       9.08817106      16.79194415      16.37996227 
C       8.08686260      18.91193856      19.65959963 
C       8.32936727      22.81126583      18.95160486 
C      11.84530943      27.58998067      12.46933220 
C       8.74377189      27.24614783      22.63632894 
C       7.83893309      16.96023199      25.16147154 
C      10.50140901      11.13420760      16.97440154 
C      13.14193767      17.87769267       9.01219808 
C      11.25576560      26.91333828      17.39661836 
C       9.31994104      22.40878611      23.41792661 
C      10.04969188      14.91075345      21.28014654 
C      12.57978019      14.56828356      13.88824229 
C      13.35472184      22.30312177      11.38256694 
C      16.17281901      25.04266907       9.81688896 
C      12.89942661      30.06740021      19.90525568 
C      10.34319878      21.51758130      27.55295448 
C      12.11043713      11.29213270      22.43785044 
C      15.66693775      13.23267354      11.30091534 
C      16.88809808      20.41144525       8.35715885 
C      14.58187410      30.00277210      15.37704696 
C      11.00449576      26.08485568      26.45568662 
C      11.14673824      14.03176289      26.29390947 
C      14.78877880      10.38835416      15.14516982 
C      21.82489040      17.07238913       9.24364922 
C      20.50430589      29.94610351      13.81202860 
C      16.19195877      29.25627611      26.50435544 
C      15.28748532      16.02794997      30.12156169 
C      18.67192330       8.58766864      19.25240545 
C      19.46944956       8.95290592      15.31957371 
C      21.27421260      12.58109308      10.68577242 
C      21.68674829      21.16418378       8.10107444 
C      21.46785466      26.99394580      10.16378385 
C      18.76897135      32.01150443      16.92279875 
C      17.53196610      31.97167494      22.98915773 
C      14.80387100      26.60476163      29.51889487 
C      14.67046624      20.64314066      31.42528761 
C      15.06558385      12.26653938      28.51868056 
C      17.27198425       8.89504741      23.77101398 
H      31.97441106      22.03282303      25.29835591 
H      32.08970179      23.52074357      26.28258007 
H      31.43768603      23.59271628      24.60887097 
H      31.63593421      19.24656269      26.47334634 
H      31.36745653      18.94950714      28.21659341 
H      30.59015916      20.35751518      27.40229661 
H      32.21735368      17.85112368      24.29820187 
H      32.61614143      16.11639297      24.48493523 
H      31.22145791      16.82259457      25.37345570 
H      33.81514526      18.64576219      20.62721591 
H      32.44612614      17.76671530      21.39747023 
H      32.97638153      19.34844113      22.04273717 
H      33.35320331      23.49513674      21.67762013 
H      32.47174264      22.10514814      20.96032654 
H      32.71155739      22.19813495      22.72665611 
H      30.10853794      27.64844544      28.20453808 
H      29.19867716      26.59779604      29.32782190 
H      28.69593384      28.29588166      29.09110917 
H      32.09767342      28.23723113      17.58922719 
H      33.04904798      26.81798669      18.11810143 
H      32.19463782      27.82066699      19.32511050 
H      33.01399143      16.49832804      14.56930006 
H      33.61115459      16.35486901      16.25378358 
H      33.44855236      17.97057324      15.49515467 
H      30.05633091      10.14530090      24.04057279 
H      30.96706890      11.42768123      24.89697631 
H      31.02222451      11.32981991      23.11036583 
H      28.56803482      18.57093938      32.12530786 
H      28.26925919      16.87018991      31.64662060 
H      27.19350831      17.66807629      32.83876011 
H      30.19799815      27.52869340      22.78877180 
H      30.18639916      25.90750503      23.54388803 
H      29.55813879      27.32196456      24.45679098 
H      32.13582011      21.72733611      16.98670026 
H      31.65564800      22.10262843      18.66739589 
H      31.79707393      23.43304761      17.46404061 
H      31.24036396      15.02132469      18.62928161 
H      30.88940899      13.90526347      20.00231593 
H      31.08542552      15.66187165      20.30296104 
H      28.49338700      13.61961389      26.64643829 
H      28.10188552      14.48970159      28.17836619 
H      28.94193342      15.34972402      26.84895558 
H      28.31780671      23.07478755      29.48519986 
H      28.66173519      21.68632560      28.41096399 
H      27.95945524      21.40159698      30.03800368 
H      23.94617192      24.25601448      31.64434677 
H      25.36973350      25.34086872      31.78402548 
H      25.44087344      23.88152755      30.73609526 
H      28.88884421      30.64777473      20.87494709 
H      28.22676057      29.28254326      21.84021718 
H      27.22732911      30.73236571      21.53849468 
H      31.47781132      21.27999224      12.84999860 
H      30.73041222      21.91863458      14.35903860 
H      30.08737941      22.41179597      12.76332557 
H      28.66365584      11.16373432      17.41077326 
H      29.73231896      10.60233275      18.73699773 
H      29.38467332      12.35076950      18.52745508 
H      24.62426725      12.38785024      29.47319557 
H      25.71530392      13.12624900      30.68976606 
H      25.94126118      13.46524627      28.93812844 
H      24.74349813      21.25672734      32.54965936 
H      24.61658800      19.58739367      31.92493115 
H      23.67891461      20.07403721      33.37494757 
H      27.21198501      30.13878925      24.84643711 
H      26.61866410      28.96656594      26.06116797 
H      26.13900255      30.69514940      26.17081745 
H      29.93849386      27.03689222      13.86904757 
H      30.58986531      25.37256355      13.97144999 
H      30.07991372      26.21926642      15.46397181 
H      29.88779776      13.56164764      13.72810390 
H      30.11456262      12.97356907      15.40215210 
H      30.11174433      14.72921053      15.06887675 
H      26.09439451       9.27666312      25.56590499 
H      26.47305329      10.46965882      26.84343261 
H      26.89164544      10.82517750      25.14434931 
H      18.18375620      16.44950105      31.88216542 
H      18.32513235      18.20056114      31.55838936 
H      19.29547345      17.44525942      32.86393860 
H      19.59138784      29.68620022      27.85814832 
H      20.23657440      30.16890803      26.26173699 
H      21.11661135      30.61872466      27.76052465 
H      25.61008110      29.88639932      14.09860077 
H      23.92347922      30.03646081      14.68964143 
H      24.38696019      28.64022893      13.67124453 
H      25.28377707      16.66221106      10.06844620 
H      25.13789099      15.29617231      11.21436449 
H      26.71138523      15.64132583      10.42589452 
H      21.73103050       8.33833295      20.62973576 
H      21.48054123       9.00114075      22.27269513 
H      22.85091082       7.88848410      21.95277059 
H      21.58579967       8.30765740      24.72314186 
H      21.22740165       8.35820708      26.47618582 
H      22.53886537       9.38335850      25.79527534 
H      19.78183565      11.93319097      30.77891800 
H      18.47861419      12.57611011      29.72487418 
H      19.28900506      13.65151285      30.91789471 
H      18.86193186      20.14054693      33.02622942 
H      18.77120861      21.85556584      33.53000116 
H      20.20590569      21.25739785      32.63252265 
H      19.53754653      28.03534079      30.17437329 
H      19.35758092      27.12243236      31.70301042 
H      18.16912520      26.88618231      30.37796245 
H      22.20768629      33.05459124      23.64286333 
H      23.14333083      31.60420074      24.14961903 
H      21.60059000      32.00840560      24.96546337 
H      23.72736549      31.73583129      16.87999615 
H      23.64350592      32.87123735      18.26162348 
H      22.18711519      31.92858046      17.79066958 
H      26.18608436      26.62646375      10.31410304 
H      26.84033348      26.29520541      11.95516398 
H      25.68858661      27.64215064      11.70172506 
H      26.72061292      21.03982832       8.82140041 
H      24.98505476      20.80566842       9.21214070 
H      26.15743325      19.46620702       9.46725902 
H      25.76673688      12.92959931      11.36599923 
H      25.72142500      11.29359977      12.08481881 
H      26.50947537      12.64134977      12.97114973 
H      24.49400132       8.27364212      16.37099864 
H      22.83363569       8.93734426      16.50259646 
H      23.70320308       8.38704848      17.97379062 
H       8.99330750      23.50841722      14.39528574 
H       9.58598704      23.53769032      16.09168405 
H       9.07400691      21.99601582      15.34555282 
H       9.59665189      18.94274486      12.75086425 
H      10.44088374      20.35499638      13.48784211 
H       9.39087862      19.30921858      14.49007506 
H       8.28673857      16.04860363      16.30504807 
H       9.70561443      16.77683432      15.47603022 
H       8.64833926      17.78918423      16.50652745 
H       7.99592509      19.51909428      18.75022052 
H       7.10318459      18.81429038      20.13182879 
H       8.48650982      17.92590770      19.39990076 
H       8.16267727      22.19932636      18.05636870 
H       7.51070656      23.53248724      19.05233115 
H       8.36784195      22.15949829      19.83055984 
H      12.23305599      28.52238072      12.04288784 
H      10.86926218      27.77724799      12.93250742 
H      11.73897959      26.84095648      11.67969723 
H       7.88582002      26.59406103      22.83849849 
H       8.64233814      27.68856303      21.64141150 
H       8.78719038      28.03967574      23.39118737 
H       7.25770080      16.37284456      24.44121032 
H       7.41149919      17.96221958      25.25502407 
H       7.83563516      16.45936579      26.13668988 
H       9.96143644      11.38164266      16.05313890 
H       9.84828519      11.28138140      17.83879249 
H      10.84141414      10.09266653      16.93623888 
H      13.72902386      17.71803372       8.10011568 
H      12.39667960      18.66267045       8.83954545 
H      12.64470793      16.94771175       9.30132323 
H      11.36537260      27.39762398      16.41904760 
H      10.72454044      27.57793224      18.08841563 
H      10.70001356      25.97528935      17.29399571 
H       9.07317383      23.46489446      23.57949797 
H       8.71856558      21.77193041      24.07741607 
H       9.13216423      22.13240076      22.37540584 
H       9.88406604      13.95532696      20.76834807 
H       9.70475764      15.73252064      20.64463905 
H       9.51850383      14.92946872      22.23861954 
H      12.66739631      14.52990045      12.79589366 
H      11.84013688      15.32349633      14.17301757 
H      12.29415529      13.58794825      14.28516153 
H      13.41236848      21.59035637      10.55168466 
H      13.21655296      23.32165273      11.00071563 
H      12.52614028      22.03991131      12.04848588 
H      15.56947532      25.72221404       9.20536001 
H      15.57920949      24.17443548      10.12307018 
H      17.04260544      24.69848437       9.24303865 
H      13.68796403      30.71931955      19.50877777 
H      12.02144656      30.66605062      20.17026390 
H      12.64021992      29.31562557      19.15115625 
H      10.80761494      22.30074249      28.16524189 
H       9.39245432      21.20756100      28.00035853 
H      10.19107109      21.89093471      26.53395493 
H      11.44327201      10.46015235      22.18636151 
H      11.59818933      12.25158457      22.30971102 
H      12.45280988      11.19937035      23.47623319 
H      15.17392200      13.05787238      10.33861444 
H      14.92519560      13.44536874      12.07761592 
H      16.24440897      12.34547001      11.59032331 
H      17.30595018      19.91451322       7.47430832 
H      16.33136088      21.30260173       8.04285706 
H      16.21004347      19.72954733       8.88069667 
H      14.85920606      30.84214161      14.72837689 
H      13.71598017      30.28209273      15.98906857 
H      14.32879164      29.12842330      14.76831244 
H      10.26737947      25.39221308      26.88030612 
H      10.80144696      26.22396659      25.38808451 
H      10.94816102      27.04470026      26.98068025 
H      10.63781740      13.25686403      25.70820333 
H      10.74995575      15.01232360      26.01239782 
H      10.97514783      13.85355727      27.36141905 
H      14.42064660      10.57149809      14.12848391 
H      14.08825729      10.82488673      15.86430228 
H      14.86530931       9.30815442      15.31412295 
H      21.38628179      17.00008317       8.24129875 
H      22.55363305      16.26513670       9.38430472 
H      22.32540773      18.03893015       9.36240601 
H      19.89208718      30.74888938      13.38496208 
H      21.44272048      29.86940231      13.24954062 
H      20.73063757      30.17068809      14.85984414 
H      17.00084290      29.95994588      26.27240856 
H      16.53558557      28.53573747      27.25395474 
H      15.31964122      29.80563832      26.87670253 
H      14.39079000      15.56324362      30.54844240 
H      15.82346783      16.57708035      30.90474997 
H      15.94375967      15.25692900      29.70362734 
H      18.06965938       7.85159356      18.70741879 
H      19.07930877       8.12207398      20.15804406 
H      19.49908580       8.92810980      18.62076654 
H      19.75304452       8.40086960      14.41615698 
H      18.46167926       9.36933671      15.21138974 
H      19.50902908       8.28329405      16.18667861 
H      21.28283538      13.32503677       9.87959552 
H      20.92675300      11.61873841      10.29374551 
H      22.27807276      12.47665444      11.11255301 
H      21.96226013      21.88910814       7.32649954 
H      20.59767139      21.12094293       8.21362741 
H      22.07617622      20.17486482       7.83288253 
H      21.32317231      27.00877506       9.07777845 
H      22.52247737      26.81991403      10.40342892 
H      21.13595809      27.94690572      10.59440549 
H      19.32921063      32.01851719      15.98031965 
H      18.69563728      33.03280577      17.31416937 
H      17.77070382      31.59309731      16.75859384 
H      17.20392703      32.92747227      22.56522450 
H      18.62235444      31.96217916      23.09334177 
H      17.05874519      31.82635982      23.96804241 
H      15.08960774      27.63000979      29.25621276 
H      14.56799801      26.55456543      30.58856857 
H      13.93415297      26.30242664      28.92661470 
H      14.46676212      19.56945103      31.52008467 
H      13.97325609      21.20396065      32.05832782 
H      15.70158072      20.85340202      31.72985520 
H      14.99944412      11.19105590      28.71712207 
H      14.24464902      12.58594225      27.86722994 
H      15.02337988      12.81593382      29.46675757 
H      17.41619144       8.47621003      22.76727377 
H      16.57991375       8.26500585      24.34166605 
H      18.23179250       8.97961152      24.29314965 
