646
Properties=species:S:1:pos:R:3 i=67 optimized=T E=-9687.724929312 pbc="F F F" jobid=246_80-Ag-10_2-000009-PBE
Au      21.90213415      20.18604776      20.92875349 
Au      24.79171106      20.19913285      21.87077418 
Au      20.45102059      22.68304014      20.44672965 
Au      19.74281210      20.93957532      22.74146007 
Ag      19.99888670      18.16120090      21.85988438 
Au      21.14973768      23.49449994      23.17510787 
Ag      20.41430756      21.76721673      25.45455758 
Au      20.69676658      18.95560848      24.63441765 
Au      20.93545886      16.17328263      23.75032336 
Au      21.87152461      16.12693029      20.96422765 
Au      22.73470590      16.12325568      18.15444882 
Au      23.04823597      18.89006406      17.23301460 
Ag      23.31234477      21.68333401      16.36164297 
Au      22.60738902      23.43377903      18.57757448 
Au      21.84683239      25.16606761      20.85494785 
Ag      23.38950683      22.69393950      21.34817205 
Au      22.63538125      21.00725570      23.66761013 
Au      22.90996444      18.18714957      22.84178856 
Au      23.80960503      18.16123579      20.02408130 
Au      24.10880862      20.93733162      19.10446986 
Au      20.88574579      14.00242254      19.01179771 
Au      21.84561129      14.04072436      16.18765258 
Au      22.16011704      16.87368836      15.28113716 
Au      22.35472047      19.71120867      14.35246707 
Au      22.67711169      22.54901157      13.57253167 
Au      21.96019894      24.33559811      15.83627759 
Au      21.14810874      26.09554958      18.11460691 
Au      20.44178516      27.82695133      20.41266848 
Au      25.35085939      22.42858882      14.46984504 
Au      24.78459512      24.26180971      16.71195907 
Au      24.01394405      25.92045827      18.94633248 
Au      23.16341277      27.72115175      21.22964310 
Au      22.55415377      26.06585043      23.62775471 
Au      21.74331297      24.36791948      25.85338933 
Au      20.94231910      22.67314549      28.14291460 
Au      21.37479608      19.75373870      27.41019166 
Ag      21.56005619      16.99319695      26.55404741 
Au      21.74197531      14.13072275      25.66102107 
Au      22.84287411      14.02844486      22.85669537 
Au      23.71030966      14.03876290      20.07694243 
Au      24.52105443      14.02573016      17.17947823 
Au      24.95488995      16.83055280      16.25119469 
Au      25.15264999      19.58888177      15.38770682 
Au      23.64383615      19.00548826      25.64873072 
Au      23.75577786      16.22014184      24.75188154 
Au      24.83483419      16.08126079      21.96897884 
Au      25.57632680      16.09438292      19.10484506 
Au      26.07243526      18.86545194      18.16088621 
Au      26.21050721      21.65223508      17.25280626 
Au      25.64068915      23.49099549      19.47849142 
Au      24.74781987      25.20049131      21.70752983 
Au      24.12455441      23.56638946      24.08729763 
Au      23.27187271      21.88466778      26.33261785 
Au      26.27822884      22.77326490      22.28400412 
Au      25.52703668      21.03709062      24.65221118 
Au      25.80774260      18.13538197      23.82735483 
Au      26.74158174      18.08294278      20.93327246 
Au      27.00096096      20.94693425      20.00448939 
Ag      27.65067152      20.19863586      22.77953756 
Au      27.63345769      15.17417963      21.43779087 
Au      28.57110638      17.30778874      18.63229296 
Au      28.87158137      19.91856284      17.70209920 
Ag      28.49010273      23.24558828      18.70771522 
Au      27.78352164      25.02800234      20.77296560 
Au      26.76114407      25.05095162      24.24861815 
Au      26.05162130      23.53715855      26.46849500 
Au      25.71113899      20.10527397      27.55774783 
Au      25.93463728      17.43171691      26.83480675 
Au      26.81552883      15.27865414      24.09074300 
Au      28.52983531      17.51230630      23.12647951 
Au      29.32021946      19.34343556      20.63855171 
Au      29.01284013      22.34614994      21.48322862 
Au      28.05967648      22.40078549      24.54102443 
Au      27.76094708      19.44578129      25.52084918 
Au      25.56649597      13.28317594      22.30302870 
Ag      26.35220136      13.33166980      19.36029086 
Au      27.17478796      15.10927957      17.04615223 
Au      27.62158660      17.91455651      15.90964410 
Au      27.67732983      20.80445439      14.95139833 
Au      27.54828293      23.67801178      15.89454130 
Ag      26.89972661      25.70071349      18.07007128 
Au      25.90528844      27.45358756      20.39319738 
Au      25.12967811      27.43878380      23.33596290 
Au      24.41255158      25.87629592      25.82660273 
Au      23.44244097      24.10364123      28.11430518 
Au      23.29823541      21.26295915      29.03762724 
Au      23.60272710      18.23832344      28.42682194 
Au      23.66937844      15.34840614      27.44110193 
Au      24.54400404      13.58716755      25.20981927 
Au      24.35827466      11.52596693      15.42705279 
Au      24.13936698      14.81769305      14.35268884 
Au      24.22303781      17.54965368      13.41208408 
Au      24.46072031      20.38306434      12.59210281 
Ag      25.38334009      23.17552769      11.54017001 
Au      24.25415648      25.10848004      14.01818267 
Au      23.31842287      26.83088896      16.18863358 
Au      22.55298670      28.51612012      18.47003283 
Ag      22.34523015      30.59515610      20.80784421 
Au      21.25618591      28.61952097      23.25759037 
Au      20.31458369      26.90288197      25.43077116 
Ag      19.56252258      25.21832186      27.72212194 
Au      19.50235732      23.75160117      30.57956543 
Au      19.34538483      20.49127989      29.29007173 
Au      19.38480170      17.72849553      28.41165209 
Au      19.59674741      14.94844528      27.48944537 
Au      20.53766965      11.81678612      27.21654836 
Au      21.09625843      11.93862472      23.79401113 
Au      21.80797554      11.91833088      20.98131842 
Au      22.66227597      11.99649515      18.17247544 
Au      29.73269160      14.26145398      23.56165618 
Au      31.48706173      18.22918613      18.11017551 
Au      30.81846006      24.89680864      19.99128964 
Au      28.78903549      25.07159299      26.65459910 
Au      28.07714770      18.48523093      28.86077982 
Au      28.95700590      27.70842723      18.86541439 
Au      30.29223659      18.59078005      14.75388148 
Au      28.03523641      11.68517030      21.70325800 
Au      25.34768532      16.56548058      30.19379585 
Au      25.95605711      26.46414895      28.33445390 
Au      26.66725525      26.80359415      15.17226537 
Au      23.22014183      28.73850654      25.74297967 
Au      21.72426273      18.89716696      30.74117235 
Au      24.08986934      10.83450052      23.40434298 
Au      27.16742301      15.70476664      13.80611612 
S      29.78107830      22.99219393      26.20682130 
S      29.51661126      18.55653965      27.00749100 
S      30.70900624      16.37061817      23.22481689 
S      31.71970662      19.47609883      20.08494864 
S      31.09132832      23.57956216      21.91162432 
S      27.94529170      27.18228011      27.26808820 
S      30.73558317      26.33646404      18.13046306 
S      31.48307995      17.03354005      16.08020088 
S      28.94638829      12.06254269      23.86055806 
S      26.80620587      18.31562755      30.83588962 
S      28.09231289      26.49034240      22.76993758 
S      29.95088980      22.03406904      17.06541183 
S      29.07816821      15.03867223      19.44622803 
S      26.88945983      15.17395425      26.54113597 
S      26.22976408      22.27356455      28.58009579 
S      24.05647568      25.92658699      29.61161600 
S      27.30971903      29.24815132      19.52296766 
S      29.31161747      20.13248653      13.27145472 
S      27.31654151      11.04242093      19.56221979 
S      23.96695342      14.70689065      29.78248242 
S      22.75447807      20.92821935      31.38497805 
S      24.93212590      29.63543304      24.37188777 
S      28.24273906      25.31742166      14.22891762 
S      27.99318617      13.89382509      15.09277795 
S      24.58372737      11.20425387      25.68934889 
S      20.50017331      16.90196418      30.44152599 
S      21.42402746      28.22389544      27.19022899 
S      25.12837691      28.46117139      15.83102713 
S      26.35786356      17.26239180      12.23031059 
S      23.47658889      10.13204506      21.23753208 
S      20.37184810      10.27109228      25.45464296 
S      20.57392322      13.30174568      29.04261930 
S      18.51089129      21.72186099      31.24548213 
S      20.37620407      25.86017765      30.03738026 
S      21.07008656      31.02157050      22.81442051 
S      23.81513687      30.56930149      18.88280257 
S      24.68858145      25.48309768      11.63322997 
S      26.33073530      20.98749088      11.13836474 
S      24.29067441      12.58200212      13.32961587 
S      24.33819732      10.33802179      17.45798156 
C      31.43510140      23.28982844      25.48102101 
C      30.84826350      19.76179770      27.36316965 
C      31.68416418      16.79952015      24.71404767 
C      32.77387844      18.52055147      21.23660864 
C      32.59557141      22.55705887      21.70341739 
C      29.00652196      27.74556631      28.65980832 
C      32.21375429      27.41984878      18.28520863 
C      33.20587527      17.14505092      15.44785638 
C      30.45006418      11.00464223      23.88275901 
C      27.92073865      17.52888646      32.06819113 
C      29.80488587      26.56569252      23.41333758 
C      31.69552448      22.11108761      17.62489213 
C      30.85669146      14.91139738      19.87326452 
C      28.64674911      15.07089278      27.04748872 
C      27.95124238      22.20330189      29.20202431 
C      24.71755898      25.01402052      31.06127409 
C      27.97522735      29.99083614      21.06487494 
C      30.48001781      21.54837575      13.26396505 
C      28.81958629      11.18342302      18.51364455 
C      25.13445327      13.29755182      29.62445566 
C      24.24309073      20.51324719      32.36422320 
C      26.35998612      30.01121382      25.45304348 
C      29.91713969      25.98668070      14.54150193 
C      29.81971454      13.91227345      14.98071918 
C      26.29038536      10.62204893      25.99882761 
C      19.18500129      17.01760953      31.71835421 
C      20.45441701      29.78350321      27.22648578 
C      24.68455470      29.25766505      14.23633087 
C      25.91508942      16.20861409      10.79227922 
C      22.45982144       8.63437158      21.54647579 
C      21.63028950       8.97341329      25.76241971 
C      19.25405727      12.71571872      30.17226623 
C      19.34550235      21.21045833      32.79635428 
C      19.22250168      27.06741894      30.79812192 
C      22.13767813      32.01893077      23.92517671 
C      23.26257146      31.87245262      17.71943227 
C      26.19063309      26.49497715      11.33097992 
C      25.93537022      20.50911654       9.41424526 
C      25.90579518      12.26590071      12.52133794 
C      23.49121413       8.75420188      17.09169544 
Au      18.99683419      20.17095806      19.99034890 
Au      16.09910993      20.17050007      19.07045719 
Au      21.17941046      20.94724319      18.19273989 
Ag      20.90380477      18.16374769      19.05905566 
Ag      19.73176810      23.50866646      17.74558021 
Au      20.52875901      21.77481200      15.51003074 
Au      20.20990735      18.99082582      16.26609888 
Au      19.98096762      16.18550965      17.16117813 
Au      19.06298310      16.12693399      19.94737521 
Au      18.16584958      16.11533012      22.77436051 
Au      17.83482568      18.85883747      23.68271804 
Au      17.63201205      21.68009950      24.56150297 
Au      18.28828176      23.43710052      22.30977319 
Au      19.05138121      25.19047760      20.03364211 
Au      17.50895047      22.68650060      19.53866799 
Au      18.25842334      20.99431502      17.24242082 
Au      17.98682357      18.17452602      18.08237256 
Au      17.09994353      18.13495229      20.89465355 
Au      16.79422972      20.92899198      21.81491224 
Au      20.05175239      13.99971788      21.89449497 
Au      19.05881781      14.02574574      24.71982341 
Au      18.73161552      16.82789827      25.59968305 
Au      18.56108554      19.68842724      26.50730900 
Au      18.26610331      22.58426024      27.32957806 
Ag      18.91383759      24.32873107      25.07628648 
Au      19.72422494      26.05890050      22.80232608 
Au      15.57641012      22.43793217      26.47204037 
Au      16.14889350      24.27433084      24.19607119 
Au      16.89355067      25.93475689      21.96625223 
Au      17.70190404      27.72815645      19.62478162 
Au      18.28991652      26.07399988      17.28334604 
Au      19.10529779      24.36711393      15.07730809 
Au      19.95668652      22.56779611      12.78599648 
Ag      19.54825818      19.75427391      13.44888284 
Au      19.33037689      17.02552814      14.36371398 
Au      19.15665579      14.10284184      15.26769537 
Au      18.09232905      14.02355980      18.05141549 
Au      17.26716170      14.04226395      20.82312863 
Au      16.35840880      14.03853877      23.77090410 
Ag      15.89721522      16.77849936      24.66761845 
Au      15.73013485      19.55430965      25.52429080 
Au      17.24867469      18.99312019      15.26140660 
Au      17.14706168      16.20854550      16.18051496 
Ag      16.08079177      16.05632609      18.94727500 
Au      15.34749565      16.05531400      21.80687902 
Au      14.86680780      18.81418017      22.75533412 
Au      14.70937458      21.61714640      23.67804280 
Au      15.26677255      23.46021854      21.43018382 
Au      16.16679325      25.20036930      19.20267062 
Au      16.76026982      23.53830600      16.79289549 
Au      17.62812310      21.84151274      14.56411094 
Au      14.58736428      22.76637862      18.64743783 
Au      15.38697097      21.01355588      16.27311752 
Au      15.10581280      18.09238373      17.10589905 
Au      14.18655954      18.05865775      20.01245938 
Au      13.86286994      20.94528337      20.94334528 
Au      13.22456141      20.19198569      18.14424293 
Au      13.26874191      15.14407011      19.48256764 
Au      12.33245604      17.32627246      22.27190373 
Au      12.04121792      19.91900401      23.18539508 
Au      12.37775079      23.30229764      22.17043745 
Au      13.06131885      24.99093651      20.09085859 
Au      14.19968838      24.98364028      16.66025675 
Ag      14.92313536      23.43869835      14.40997628 
Au      15.18497287      20.11659176      13.35976446 
Au      14.97928408      17.43712982      14.11293415 
Au      14.06647865      15.25642123      16.84356179 
Au      12.37664385      17.48228240      17.84085349 
Au      11.54450909      19.36405521      20.26072722 
Ag      11.81533747      22.34048656      19.41968158 
Au      12.84511160      22.38025658      16.36116765 
Au      13.13943491      19.44104126      15.39814919 
Au      15.35956841      13.29250611      18.61280764 
Au      14.65551346      13.30656620      21.60011837 
Ag      13.61441974      15.10485133      23.81585872 
Au      13.27646188      17.93781465      24.99438579 
Au      13.22721892      20.84142124      25.97285318 
Au      13.39455813      23.66719974      25.03431959 
Au      14.02268708      25.67921509      22.82774933 
Au      14.98867504      27.43378517      20.50822711 
Ag      15.66571949      27.42239622      17.52477827 
Au      16.48950398      25.84089721      15.05922596 
Au      17.47319966      24.03696166      12.75455207 
Au      17.58524037      21.19923365      11.86337708 
Au      17.30561779      18.22399197      12.48004770 
Au      17.24758902      15.31416181      13.46920543 
Au      16.35140914      13.57963200      15.74109725 
Au      16.52586515      11.50808843      25.46852054 
Au      16.77560301      14.77657692      26.57561755 
Au      16.69139367      17.51019402      27.45930652 
Au      16.50534187      20.32961031      28.28953052 
Au      15.42627931      23.24649787      29.41478370 
Au      16.68168463      25.13099003      26.84736023 
Ag      17.54092263      26.86589127      24.69435956 
Au      18.36329603      28.47327070      22.39951976 
Au      18.34534573      30.69384403      19.97570787 
Ag      19.62427603      28.63697276      17.62774187 
Au      20.54243554      26.93947509      15.46061053 
Au      21.31265246      25.14732664      13.21441879 
Ag      21.48842477      23.69741357      10.45392909 
Au      21.65273512      20.49346139      11.57186593 
Au      21.51496099      17.73810400      12.46673891 
Au      21.27938441      14.96549037      13.42717528 
Au      20.37698044      11.82761796      13.67022361 
Au      19.85637969      11.91522018      17.11448563 
Au      19.15530541      11.91150962      19.91867550 
Au      18.28130192      11.99249048      22.74005759 
Au      11.13279224      14.26042586      17.35118216 
Au       9.40900557      18.23956150      22.80921297 
Au      10.02684923      24.88190651      20.80937613 
Au      12.26138776      25.12556990      14.25366684 
Au      12.85039154      18.46784149      12.05080206 
Au      11.92525371      27.66040297      22.00102256 
Au      10.60725925      18.61203187      26.15894466 
Au      12.82896529      11.71862606      19.16258687 
Au      15.55185454      16.52452962      10.72590270 
Au      15.03556572      26.46215150      12.56068388 
Au      14.28524424      26.85459579      25.66816246 
Au      17.53251881      28.80721755      15.31808597 
Au      19.21797360      18.91573770      10.14774036 
Au      16.86889214      10.83209378      17.51950869 
Au      13.74887341      15.68497756      26.98400752 
S      11.25254830      23.04133534      14.61105403 
S      11.40337529      18.54349585      13.89878484 
S      10.17907532      16.37103780      17.72536261 
S       9.14761833      19.48291483      20.83350470 
S       9.71107576      23.59185154      18.87680292 
S      13.13068468      27.25057664      13.72025922 
S      10.11131370      26.30619142      22.69016977 
S       9.45279532      17.02968504      24.83217902 
S      11.89578232      12.05915642      17.01398695 
S      14.13179372      18.30257008      10.08079693 
S      12.88740882      26.48199336      18.12434554 
S      10.98372559      22.06542137      23.76541989 
S      11.83783176      15.05151992      21.50519889 
S      14.02819713      15.17948837      14.38716245 
S      14.65843142      22.22216295      12.21689738 
S      16.85373443      25.82315395      11.21859991 
S      13.56383904      29.22159022      21.36051409 
S      11.57766841      20.16325814      27.63591030 
S      13.60467076      11.12576154      21.30195905 
S      16.88694037      14.63700268      11.15228168 
S      18.16359783      20.93634492       9.51061733 
S      15.86221930      29.76209046      16.69388025 
S      12.72848155      25.35889502      26.64745805 
S      12.88701421      13.81954798      25.81310035 
S      16.32941775      11.19460618      15.24322406 
S      20.45023390      16.92233205      10.40699309 
S      19.30459728      28.28863969      13.84426530 
S      15.74762832      28.59476483      25.04556181 
S      14.51092759      17.27650982      28.56100680 
S      17.49557829      10.11648217      19.67823498 
S      20.55213012      10.26980438      15.41921917 
S      20.33170678      13.32375380      11.85448588 
S      22.46924890      21.68445645       9.57997901 
S      20.55206159      25.85394190      11.00457854 
S      19.71263230      31.10439843      18.11194880 
S      17.01464716      30.46184648      21.90945295 
S      16.23225072      25.45343587      29.25607575 
S      14.63563448      21.04888301      29.71656082 
S      16.58990414      12.52036718      27.58605529 
S      16.57421012      10.35892346      23.41520924 
C       9.57887986      23.34692687      15.28922785 
C      10.09780207      19.77788942      13.54696631 
C       9.22099732      16.83999998      16.23687080 
C       8.08807645      18.51850453      19.69363885 
C       8.18967397      22.59724036      19.11401696 
C      12.03880110      27.89491923      12.38770121 
C       8.65499554      27.41667819      22.52160317 
C       7.72977389      17.09050485      25.47127617 
C      10.38600016      11.00994421      17.01916307 
C      13.01514411      17.53637976       8.83716450 
C      11.17966496      26.65463191      17.48297354 
C       9.24319774      22.16404478      23.20359131 
C      10.04657459      14.93594238      21.12995973 
C      12.27482978      15.07397007      13.86621323 
C      12.95855813      22.11547688      11.53831060 
C      16.09456427      24.89598271       9.82749006 
C      12.91023972      29.98522894      19.82474433 
C      10.41905075      21.58799721      27.63500524 
C      12.12746936      11.24007921      22.38576393 
C      15.68509438      13.26053016      11.33595054 
C      16.69241932      20.49958613       8.51370266 
C      14.47527813      30.21652155      15.58409500 
C      11.05723436      26.00555671      26.27465598 
C      11.06782459      13.86017325      26.03320130 
C      14.62618607      10.57893163      14.98101990 
C      21.77403304      17.08678167       9.14399015 
C      20.24516593      29.86385169      13.74706562 
C      16.16850552      29.37963306      26.65386670 
C      14.88336525      16.24747933      30.03652713 
C      18.51471064       8.62434952      19.34952763 
C      19.28840983       8.97710084      15.11254028 
C      21.65753509      12.76141899      10.72064264 
C      21.56632901      21.25739700       8.04027828 
C      21.69016711      27.13586396      10.35613119 
C      18.72762598      32.15685254      16.97585349 
C      17.50020479      31.82577162      23.03160111 
C      14.79041287      26.55496424      29.52875764 
C      15.00948287      20.62215416      31.45928798 
C      14.97314657      12.20856550      28.39075549 
C      17.41000583       8.76637376      23.77050671 
H      31.86800419      22.30777597      25.25264521 
H      32.05479961      23.79832161      26.22825843 
H      31.37973906      23.88154058      24.56216572 
H      31.49256645      19.80049384      26.47581404 
H      31.42600917      19.39611739      28.21952203 
H      30.45401537      20.76239687      27.56451829 
H      32.11701754      17.79274303      24.54048016 
H      32.48852257      16.06364268      24.82505284 
H      31.06396894      16.83032646      25.61508582 
H      33.76959993      18.41907033      20.79037749 
H      32.34948780      17.53685140      21.45896209 
H      32.84553460      19.10027426      22.16545614 
H      33.46030579      23.22572508      21.62676119 
H      32.53258719      21.90596381      20.82608631 
H      32.68890310      21.93837037      22.60485451 
H      30.00046885      27.97146837      28.25657948 
H      29.08591430      26.98137435      29.43770328 
H      28.55958355      28.65594045      29.07612327 
H      32.13218425      28.20956871      17.52924503 
H      33.10146349      26.80763398      18.08842892 
H      32.28172883      27.86408482      19.28192762 
H      33.21933897      16.72631550      14.43476375 
H      33.84641265      16.54578775      16.10522572 
H      33.55866066      18.17973126      15.42711215 
H      30.12392987       9.95796979      23.87650713 
H      31.00012719      11.21616235      24.80699139 
H      31.08878852      11.19925312      23.01691909 
H      28.70779701      18.24925234      32.31950428 
H      28.36780464      16.61142997      31.67597831 
H      27.32681760      17.30196050      32.96127937 
H      30.43113636      27.05313637      22.65595908 
H      30.19360134      25.56537114      23.62171214 
H      29.78832881      27.15880673      24.33565301 
H      32.26499632      21.32860475      17.10880860 
H      31.77309692      21.96655754      18.70577176 
H      32.08156661      23.10194288      17.35668049 
H      31.42721016      14.97096927      18.93879817 
H      31.01979198      13.94385375      20.36335584 
H      31.15484818      15.72001305      20.54680786 
H      29.00900945      14.06962669      26.78531141 
H      28.69713125      15.22621455      28.13223742 
H      29.24867036      15.82943304      26.54014940 
H      28.25359237      23.22108593      29.47784281 
H      28.63107986      21.81276257      28.44008520 
H      27.96020487      21.54843341      30.08157020 
H      23.85205877      24.60501114      31.59745792 
H      25.25691541      25.71881803      31.70392809 
H      25.37609780      24.19689399      30.74753743 
H      28.82616383      30.63172198      20.80880216 
H      28.27409724      29.21557993      21.77932433 
H      27.16835596      30.59563433      21.49726266 
H      31.39538764      21.24526880      12.74352555 
H      30.70466531      21.87614897      14.28531076 
H      29.99007259      22.36194690      12.71457043 
H      28.49004805      11.05743918      17.47455022 
H      29.52377018      10.38698701      18.77764062 
H      29.29421035      12.16462752      18.62414248 
H      24.55247811      12.44288579      29.25744212 
H      25.54837784      13.07109052      30.61343388 
H      25.93678511      13.52658277      28.91485237 
H      24.79789900      21.44634235      32.52089479 
H      24.88153186      19.78953341      31.84842255 
H      23.91916370      20.11011590      33.33069194 
H      27.19635528      30.29301549      24.80187311 
H      26.64556649      29.14782178      26.06166652 
H      26.09224170      30.85709649      26.09665341 
H      30.04268160      26.89831687      13.94631638 
H      30.63537830      25.22679075      14.21005975 
H      30.07482495      26.20013119      15.60336711 
H      30.10745115      13.63285590      13.96063131 
H      30.19474655      13.16171511      15.68735148 
H      30.23234109      14.89372204      15.23454381 
H      26.29716745       9.52758833      25.93825716 
H      26.56082742      10.93698259      27.01408173 
H      27.00088873      11.04498839      25.28148498 
H      18.47542283      16.20135142      31.53484473 
H      18.66074486      17.97695446      31.66247018 
H      19.64504841      16.89379405      32.70558924 
H      19.51502055      29.57334339      27.75239954 
H      20.23693378      30.13982345      26.21414864 
H      21.02660909      30.53719864      27.77978058 
H      25.54984144      29.82428131      13.87352497 
H      23.85153314      29.94270248      14.43671863 
H      24.37697049      28.51428967      13.49342970 
H      25.38440034      16.84374175      10.07228706 
H      25.26899534      15.37751928      11.09264463 
H      26.83792555      15.82778849      10.33961470 
H      22.00434343       8.34322653      20.59189429 
H      21.67300844       8.83348169      22.28108523 
H      23.11755308       7.83285427      21.90235049 
H      21.70193840       8.35107494      24.86266236 
H      21.28049960       8.36490794      26.60462527 
H      22.60786475       9.41010036      25.98788209 
H      19.60503169      11.80368207      30.66915804 
H      18.32537712      12.51444698      29.62681777 
H      19.09333681      13.50149767      30.92042741 
H      19.03466942      20.18491207      33.02803451 
H      19.00893901      21.88592491      33.59162839 
H      20.43433325      21.25288170      32.69721238 
H      19.48268325      28.05497770      30.39734797 
H      19.36527740      27.06755298      31.88464757 
H      18.18093366      26.82882477      30.55713978 
H      22.11518241      33.05282857      23.56026945 
H      23.16628328      31.64607457      23.93724592 
H      21.72513636      31.97922406      24.94013619 
H      23.68476200      31.64796516      16.73259435 
H      23.65694741      32.83236933      18.07424223 
H      22.16930830      31.91868258      17.66268894 
H      26.39770023      26.46417487      10.25458288 
H      27.05031351      26.11341270      11.89006229 
H      25.98693394      27.52829112      11.63534032 
H      26.62827555      21.03609640       8.74732896 
H      24.90155550      20.76573082       9.15618543 
H      26.09171875      19.42769927       9.31986784 
H      25.96984617      12.90327112      11.63156215 
H      25.92647030      11.21149581      12.22177974 
H      26.73912556      12.48734727      13.19514551 
H      24.17939747       8.11945295      16.52128211 
H      22.56943851       8.91799225      16.52275080 
H      23.26556866       8.27743228      18.05337129 
H       8.98880549      23.87030279      14.52856542 
H       9.61071419      23.92413141      16.21837965 
H       9.13130060      22.36573779      15.49104222 
H       9.51408807      19.43085703      12.68690449 
H      10.51550649      20.77015433      13.35080255 
H       9.45246227      19.82543558      14.43310353 
H       8.39809313      16.12671871      16.11482355 
H       9.84585800      16.86297545      15.33876140 
H       8.81428761      17.84275045      16.41850139 
H       8.00825483      19.09428799      18.76305925 
H       7.09571326      18.41669567      20.14725363 
H       8.51409501      17.53494115      19.47376415 
H       8.04796557      22.00862614      18.19869982 
H       7.33674765      23.27140735      19.24747722 
H       8.27505963      21.91610821      19.96695871 
H      12.49907152      28.80613175      11.98805369 
H      11.06687862      28.13608229      12.83357022 
H      11.90941246      27.16127213      11.58742292 
H       7.75305945      26.81968936      22.69983788 
H       8.60975668      27.86997210      21.52763688 
H       8.73803774      28.19924798      23.28483068 
H       7.10304152      16.47820949      24.81264205 
H       7.34954084      18.11524398      25.49950731 
H       7.73152228      16.66543008      26.48178720 
H       9.82483036      11.22163749      16.10164295 
H       9.76055687      11.21278626      17.89267820 
H      10.70564056       9.96132309      17.02488947 
H      13.61159261      17.30759930       7.94625748 
H      12.23833332      18.26758837       8.58530540 
H      12.55464534      16.62200926       9.22096914 
H      11.23133327      27.21140464      16.53988347 
H      10.59386247      27.20976510      18.22577876 
H      10.72313755      25.67454873      17.31719051 
H       8.88802163      23.18112442      23.40822797 
H       8.66028913      21.43124064      23.77507949 
H       9.15690999      21.94877225      22.13514433 
H       9.85933544      13.95170044      20.68367857 
H       9.74632091      15.72085659      20.42950422 
H       9.49733233      15.04240980      22.07269193 
H      12.22867536      15.26356563      12.78667243 
H      11.66025205      15.80789680      14.39429916 
H      11.92308196      14.06056588      14.09367801 
H      12.96202121      21.40011207      10.70757838 
H      12.67929949      23.11368609      11.17903826 
H      12.24718000      21.79465155      12.30407082 
H      15.53917631      25.59974228       9.19768696 
H      15.43650341      24.10116786      10.19614705 
H      16.91945320      24.45303676       9.25542877 
H      13.72483521      30.58336480      19.39717419 
H      12.06583477      30.63303230      20.08554572 
H      12.60228462      29.22090454      19.10313885 
H      10.91694762      22.40193227      28.17664830 
H       9.50221302      21.29621775      28.15932956 
H      10.19300623      21.91245586      26.61349238 
H      11.44956060      10.41375975      22.14431576 
H      11.62047429      12.20311151      22.26370140 
H      12.48369122      11.14440602      23.41917749 
H      15.25565842      13.03475575      10.35346361 
H      14.89688605      13.51774993      12.05159931 
H      16.24856462      12.39486759      11.70603865 
H      17.03150787      20.12544576       7.54083084 
H      16.11002747      21.41849655       8.37431146 
H      16.07322487      19.74828516       9.01358167 
H      14.79400505      31.02995356      14.92293661 
H      13.65499399      30.56610878      16.22321978 
H      14.13425360      29.36071745      14.99240543 
H      10.33411430      25.25087597      26.60710735 
H      10.92514130      26.19220032      25.20430375 
H      10.91132530      26.93191054      26.84201522 
H      10.65265471      13.05469268      25.41481067 
H      10.64277602      14.81778319      25.71516282 
H      10.82730940      13.67261762      27.08550862 
H      14.32177251      10.88587912      13.97295841 
H      13.92743022      10.99099349      15.71549199 
H      14.64063979       9.48475656      15.04446533 
H      21.32463040      16.98336179       8.14956705 
H      22.49127799      16.27388364       9.31190331 
H      22.28651550      18.05056629       9.23056979 
H      19.64323278      30.59427087      13.19408467 
H      21.17307907      29.65857461      13.19935884 
H      20.48414558      30.24907772      14.74388776 
H      16.95083915      30.12353841      26.45780069 
H      16.54333650      28.64352234      27.37270586 
H      15.28172062      29.88107910      27.05763241 
H      13.93737146      15.90069940      30.46841731 
H      15.40866267      16.88425888      30.75901365 
H      15.51532982      15.39301089      29.77403263 
H      17.85737975       7.82365543      18.99113575 
H      18.97772967       8.32651883      20.29838253 
H      19.29592516       8.83248106      18.61140721 
H      19.62815813       8.37603916      14.26092988 
H      18.30934912       9.41786003      14.90178299 
H      19.22523752       8.34639233      16.00709411 
H      21.81240017      13.55820218       9.98290531 
H      21.31519548      11.85269515      10.21182575 
H      22.58691830      12.56191510      11.26533378 
H      21.90446029      21.94506294       7.25599785 
H      20.48363082      21.34213139       8.17428361 
H      21.82052446      20.22867743       7.75945597 
H      21.52776059      27.22019807       9.27496943 
H      22.73638334      26.88052786      10.55913243 
H      21.43400153      28.08733768      10.83773116 
H      19.28757634      32.24915764      16.03753169 
H      18.61316262      33.14653835      17.43189100 
H      17.74640277      31.71289358      16.77745499 
H      17.11789921      32.76577155      22.61692863 
H      18.58868945      31.87554460      23.14822946 
H      17.02001196      31.62825070      23.99797610 
H      15.09024698      27.57594726      29.26479509 
H      14.53316793      26.50994215      30.59350085 
H      13.93567890      26.25166177      28.91656354 
H      14.85417666      19.54218013      31.57087288 
H      14.30630262      21.16181237      32.10443386 
H      16.04024252      20.88793218      31.71870568 
H      14.92224453      11.14212647      28.63929522 
H      14.14196527      12.48860903      27.73517390 
H      14.93664508      12.80271061      29.31161022 
H      17.64497488       8.30111440      22.80539136 
H      16.71289074       8.12730475      24.32500506 
H      18.32596003       8.91912725      24.35174942 
