646
Properties=species:S:1:pos:R:3 Energy=-10428.2955746921 optimized=T pbc="F F F" jobid=246_80-Ag-89_8-000010-PBE
Ag      21.86163506      20.19430138      20.91024964 
Ag      24.68250355      20.18488566      21.82275139 
Ag      20.46937009      22.71938577      20.44155322 
Ag      19.73769370      20.97374654      22.72599793 
Ag      20.01112285      18.14154814      21.87744651 
Ag      21.15674798      23.51333420      23.16025938 
Ag      20.37913527      21.76905746      25.42775491 
Ag      20.68127721      18.96462036      24.61229492 
Ag      20.92949570      16.12739621      23.73030798 
Ag      21.87116391      16.11619549      20.93902191 
Ag      22.74693601      16.12800743      18.11557562 
Ag      23.06745932      18.91134576      17.22788778 
Ag      23.30132354      21.71944889      16.34214719 
Ag      22.62373576      23.46700955      18.60580666 
Ag      21.86136598      25.21229527      20.86665098 
Ag      23.31549346      22.70482960      21.35073107 
Ag      22.57667322      20.99007028      23.63179424 
Ag      22.84407829      18.17041429      22.79784046 
Ag      23.75386165      18.15557996      19.98807736 
Ag      24.04471377      20.94145468      19.10347782 
Ag      20.91469344      14.02042337      19.02918240 
Ag      21.85692041      14.04549384      16.21590102 
Ag      22.14641031      16.85871053      15.30734669 
Ag      22.38420008      19.70552684      14.41430836 
Ag      22.66938407      22.52740786      13.56143003 
Ag      21.95374282      24.29380794      15.84661227 
Ag      21.17667427      26.06496148      18.13596764 
Ag      20.47539132      27.79104841      20.42638659 
Ag      25.39152530      22.44859829      14.51455784 
Au      24.80699876      24.24235073      16.72562548 
Ag      24.01091391      25.96078624      19.01211912 
Ag      23.22944377      27.70188499      21.27827827 
Ag      22.57773515      26.07557180      23.59814310 
Ag      21.79657191      24.31090089      25.84562379 
Ag      21.00821607      22.55799063      28.11671957 
Ag      21.34362518      19.76675894      27.39070792 
Ag      21.57986864      16.97277227      26.45710357 
Ag      21.83154114      14.11142627      25.58700370 
Ag      22.82641530      14.05063344      22.83562061 
Ag      23.68545657      14.09319544      20.00587715 
Ag      24.55616643      14.09255544      17.17439306 
Au      24.94384048      16.82610552      16.24975757 
Ag      25.16444922      19.64364897      15.39887727 
Ag      23.55848535      18.97921078      25.56518393 
Ag      23.71630077      16.17472635      24.65756258 
Ag      24.74839918      16.10708665      21.87833154 
Ag      25.54513833      16.10779984      19.05094054 
Ag      25.96186385      18.88050948      18.13568649 
Ag      26.12065566      21.67195372      17.23758849 
Ag      25.53706726      23.48538006      19.50408592 
Ag      24.68282060      25.20486570      21.72289730 
Ag      24.05167819      23.55219258      24.09001395 
Ag      23.19542355      21.81872292      26.31883362 
Ag      26.16631692      22.73577834      22.25507377 
Au      25.41519129      21.00782890      24.56845138 
Ag      25.69323718      18.15546334      23.71919100 
Ag      26.61158955      18.14243174      20.89114029 
Au      26.89203385      20.95604470      19.98745314 
Ag      27.52708691      20.18975182      22.72353171 
Ag      27.50690460      15.32426203      21.23490198 
Ag      28.38878389      17.35968674      18.69276228 
Ag      28.62390224      19.99560216      17.72826421 
Ag      28.36368710      23.23049214      18.83113937 
Ag      27.64524937      24.99816815      20.90463003 
Ag      26.62383465      24.90318118      24.17988666 
Ag      25.85792842      23.36337729      26.41110100 
Ag      25.60268408      20.04189958      27.35446576 
Au      25.77515864      17.36208613      26.64533472 
Ag      26.68793896      15.43419454      23.91636881 
Ag      28.49591507      17.53258296      22.98119339 
Ag      29.26019680      19.42240075      20.58756355 
Ag      28.92317105      22.35514366      21.53940012 
Ag      27.95259012      22.32295654      24.55533181 
Ag      27.67906646      19.33434485      25.41992534 
Ag      25.53069040      13.38784089      22.19257577 
Ag      26.33715886      13.33302778      19.32306332 
Ag      27.28712967      15.13989738      17.00262226 
Ag      27.54919353      17.96481459      15.94917761 
Ag      27.71957761      20.78717378      14.97719149 
Ag      27.63061480      23.73474641      15.96430629 
Ag      26.83026840      25.63724553      18.17687723 
Ag      25.97953530      27.43623176      20.41531900 
Ag      25.20218747      27.42069138      23.43310531 
Ag      24.33992880      25.78635210      25.81963752 
Ag      23.47242598      24.05999795      28.12501912 
Ag      23.37400909      21.11552278      29.06648951 
Ag      23.53854220      18.19440394      28.30576301 
Ag      23.69154086      15.33003807      27.41155688 
Ag      24.66519414      13.53770388      25.07737061 
Ag      24.11314295      11.76625693      15.27240492 
Ag      24.03658886      14.83294091      14.38808468 
Ag      24.21998245      17.63104712      13.50676035 
Ag      24.50485647      20.41463907      12.63690235 
Ag      25.29497741      23.32821316      11.61976926 
Ag      24.09738543      25.06508681      14.04256191 
Au      23.29678716      26.77409715      16.30038665 
Ag      22.63136839      28.51540349      18.54305573 
Ag      22.27495634      30.56403865      20.95905744 
Ag      21.15610783      28.56060944      23.16989347 
Ag      20.38796689      26.82631474      25.40274877 
Ag      19.65644442      25.11407798      27.68958241 
Ag      19.30958060      23.53030098      30.41951283 
Ag      19.19734341      20.51002445      29.20172521 
Ag      19.43792615      17.72304934      28.29223117 
Ag      19.73890116      14.93606024      27.44959806 
Au      20.52465960      11.79579620      26.99184092 
Ag      20.97962028      12.01385633      23.72658868 
Ag      21.82945029      12.04098512      20.93863525 
Ag      22.76684596      12.01918335      18.15375247 
Ag      29.54690774      14.54238451      23.28384768 
Ag      31.16347902      18.48090323      18.15228524 
Au      30.61359506      24.89146846      20.18971269 
Au      28.50054488      24.89676627      26.65377017 
Ag      27.92910785      18.38421302      28.46027754 
Ag      28.86666745      27.55615894      19.01496371 
Ag      30.20508333      18.66209664      14.93839533 
Ag      28.04485844      11.94946488      21.74816539 
Ag      25.44336247      16.57854510      29.87315399 
Ag      25.83279052      26.19237172      28.30482557 
Ag      26.47414792      26.54981459      15.30596325 
Ag      23.12888142      28.55429520      25.51343266 
Ag      21.52145416      18.89469229      30.43373887 
Ag      23.87765824      11.08893665      23.24043050 
Ag      26.88559904      15.82868866      13.90779259 
S      29.54030990      22.79811754      26.44681079 
S      29.53689743      18.23120749      26.67095191 
S      30.77852070      16.52579596      22.69854018 
S      31.63177844      19.96846427      19.98518818 
S      30.86519978      23.77940589      22.24845131 
S      27.68834637      27.08045144      27.03203320 
S      30.63019964      26.12708012      18.17792444 
S      31.28712285      16.97370743      16.27480753 
S      28.86143246      12.34136336      23.98300321 
S      26.77604122      18.46304839      30.57549281 
S      27.78223393      26.66774941      22.82375627 
S      29.65354327      22.18998421      16.94511537 
S      28.96279324      14.96482852      19.17421479 
S      26.66096173      15.01169583      26.38327182 
S      25.90356735      22.14771490      28.64446118 
S      24.05025472      25.77453056      29.84109565 
S      27.34890130      29.32720196      19.53714024 
S      29.37043527      20.11767159      13.23431022 
S      27.32293682      11.06917817      19.64250263 
S      24.09043569      14.60265408      29.75616930 
S      22.57657138      20.85489145      31.39762056 
S      24.81443138      29.74239616      24.23359175 
S      28.13672988      25.27780827      14.07721500 
S      27.81678792      13.84887605      14.94871081 
S      24.45035642      11.12452280      25.60048279 
S      20.24036834      16.82996139      30.46717654 
S      21.37711183      28.27458172      27.16481546 
S      25.05559827      28.44197023      15.86093977 
S      26.24067725      17.30444178      12.09466497 
S      23.34303773      10.07494916      21.10049749 
S      20.21530215      10.19963824      25.28301349 
S      20.82988839      13.17897803      28.86911309 
S      18.27301116      21.54405119      31.28239310 
S      20.43374472      25.60633892      30.00032713 
S      20.85815311      31.02086652      22.85387175 
S      23.94026319      30.52306091      19.23167887 
S      24.48450844      25.59321744      11.63941751 
S      26.46081172      21.25119978      11.34099073 
S      23.99585075      12.72356719      13.06556062 
S      24.55826387      10.52569470      17.27637547 
C      31.23295770      23.16444183      25.84130110 
C      30.88214489      19.42224899      27.04703050 
C      31.85083892      16.89217099      24.14423426 
C      32.82274293      19.07145516      21.05693405 
C      32.43664525      22.84513171      22.09545187 
C      28.81042314      27.78560395      28.31275646 
C      32.14657982      27.16939563      18.27580580 
C      33.04197186      16.99271994      15.70709699 
C      30.40093445      11.33109045      24.09121410 
C      27.92486492      17.77367807      31.84171162 
C      29.41754659      27.13989322      23.52554485 
C      31.46358471      22.50225775      17.07534642 
C      30.77658716      14.68086066      19.32355245 
C      28.32686556      14.64947891      27.07537166 
C      27.45237415      22.12861519      29.64048120 
C      24.75037862      24.75586170      31.20019836 
C      27.95532254      30.10986341      21.08468872 
C      30.48355028      21.57957734      13.19937361 
C      28.77859972      11.14178005      18.52282076 
C      25.24848595      13.19855717      29.50073502 
C      23.93883787      20.26612916      32.47988242 
C      26.13826849      30.22492833      25.41279490 
C      29.76229634      26.08077582      14.37592556 
C      29.62777381      13.88240759      14.64032051 
C      26.10512775      10.34108971      25.75032265 
C      18.90083685      17.20154133      31.67395739 
C      20.46501539      29.87020690      27.06175901 
C      24.62096998      29.14616900      14.21938922 
C      25.73345801      16.12508463      10.77525485 
C      22.26827106       8.65666412      21.57100018 
C      21.46481081       8.89109612      25.59889158 
C      19.62902023      12.58759249      30.12402866 
C      19.16676425      21.16136602      32.84251114 
C      19.38717640      26.94586406      30.69202251 
C      21.87675390      32.06664429      23.97254213 
C      23.58287486      31.90240739      18.07531746 
C      25.96706359      26.63505555      11.32062659 
C      26.27752575      20.74277183       9.58698345 
C      25.61748062      12.33169595      12.28949635 
C      23.86631540       8.84127759      17.04754442 
Ag      19.06335361      20.18825928      19.99851042 
Ag      16.22317490      20.17668176      19.08190236 
Ag      21.20071744      20.95812597      18.17148799 
Ag      20.91707313      18.16018877      19.05311140 
Ag      19.78337948      23.49580598      17.72670299 
Ag      20.53969909      21.74472699      15.48427145 
Ag      20.24457141      18.94875001      16.29139663 
Ag      20.00707689      16.16792907      17.21288739 
Ag      19.06140342      16.11569135      19.98693123 
Ag      18.16760705      16.11397867      22.81758573 
Ag      17.86181146      18.90176947      23.68273128 
Ag      17.63584146      21.73050987      24.52524818 
Ag      18.31777112      23.48816952      22.28034809 
Ag      19.08776730      25.21030076      19.99187540 
Ag      17.61478680      22.69202481      19.54518789 
Ag      18.34335959      20.95907078      17.26559551 
Ag      18.07223739      18.16367825      18.11944135 
Ag      17.16842034      18.14983616      20.91973364 
Au      16.89351844      20.94980785      21.79123031 
Ag      20.02022044      14.02996281      21.88787183 
Ag      19.08225008      14.05009383      24.71528659 
Ag      18.76920501      16.87020673      25.59244565 
Ag      18.54183317      19.70842586      26.47097159 
Ag      18.25367615      22.56224410      27.30571329 
Ag      18.96713948      24.31967476      25.03657933 
Ag      19.74420611      26.06322380      22.73124101 
Au      15.53791864      22.52810922      26.32600651 
Ag      16.15435242      24.30913908      24.14147936 
Ag      16.93762869      25.97252526      21.87118158 
Ag      17.72508502      27.69214354      19.57726084 
Ag      18.36964965      26.07764154      17.24857687 
Ag      19.13755110      24.30260447      15.04263296 
Au      19.88198726      22.49776384      12.80083148 
Ag      19.56884193      19.70016960      13.50853119 
Ag      19.34354230      16.93700415      14.43021007 
Au      19.14453385      14.17241737      15.37569135 
Ag      18.12891511      14.03807944      18.13221536 
Ag      17.24112024      14.08508940      20.90656435 
Ag      16.34794634      14.07873031      23.76811341 
Ag      15.96079412      16.82784226      24.66445607 
Ag      15.75382851      19.63448989      25.49750647 
Ag      17.36765286      18.91544613      15.34124198 
Ag      17.17786733      16.15696792      16.26115313 
Ag      16.17091711      16.07927450      19.02665718 
Ag      15.40108914      16.10940745      21.87473217 
Ag      14.95669888      18.88069602      22.75373294 
Au      14.80343862      21.66779050      23.63182431 
Ag      15.40435633      23.49936896      21.39209267 
Ag      16.26521174      25.20184270      19.15823165 
Ag      16.90932605      23.50148746      16.80950229 
Ag      17.72764156      21.74630402      14.58533711 
Au      14.79785801      22.70370733      18.62373034 
Ag      15.49431181      20.95614041      16.31655585 
Ag      15.24818813      18.14972416      17.19806561 
Ag      14.30538880      18.13822629      20.00686204 
Ag      13.98532088      20.95676410      20.89580878 
Ag      13.36669889      20.17100889      18.17076552 
Ag      13.45137176      15.32982517      19.62131121 
Ag      12.55632932      17.36483244      22.19047801 
Ag      12.28003978      20.00385145      23.14902830 
Au      12.55543778      23.30461891      22.03713931 
Ag      13.29525217      24.99468809      19.95966550 
Ag      14.32062887      24.86444430      16.70748798 
Au      15.07208329      23.28119940      14.53496684 
Ag      15.34859272      19.99873515      13.56000570 
Ag      15.10387452      17.27253942      14.28041213 
Ag      14.30422610      15.38154858      16.90330566 
Ag      12.47599496      17.48507450      17.85574013 
Ag      11.63635427      19.39213385      20.29568920 
Au      12.02860946      22.40661216      19.26699645 
Ag      12.91659442      22.32636662      16.33165772 
Au      13.27471476      19.29601974      15.48251013 
Ag      15.38943021      13.34173049      18.69204458 
Ag      14.59595453      13.36766326      21.55607972 
Ag      13.62660298      15.17827014      23.90716649 
Ag      13.37613380      17.98642699      24.95264087 
Ag      13.20746969      20.85854397      25.88898227 
Ag      13.33901261      23.78446587      24.86237737 
Ag      14.10739175      25.69321605      22.67182660 
Ag      14.98249798      27.45422997      20.44342350 
Ag      15.74517062      27.42865225      17.43411784 
Au      16.57776213      25.75532735      15.06798333 
Ag      17.45109917      24.02505802      12.76578779 
Ag      17.56560741      21.00910902      11.81028339 
Ag      17.36604655      18.11328287      12.61374352 
Ag      17.21522592      15.23164741      13.51585164 
Au      16.38826921      13.47461292      15.91932511 
Au      16.63805359      11.71084144      25.59593807 
Ag      16.92448249      14.87035065      26.54784374 
Ag      16.68082411      17.65171892      27.41220462 
Au      16.42697529      20.45298818      28.19186441 
Ag      15.54081879      23.27778843      29.26998914 
Ag      16.81761334      25.09507980      26.86036742 
Ag      17.62168325      26.78708444      24.59337972 
Ag      18.31593022      28.51585710      22.31444379 
Ag      18.62710691      30.56952340      19.86982180 
Ag      19.78141388      28.56709614      17.67434651 
Ag      20.59043560      26.82873566      15.43262676 
Ag      21.23813424      25.07160558      13.16120114 
Ag      21.60292329      23.42284716      10.46420624 
Ag      21.69030347      20.48154703      11.68831114 
Ag      21.49341335      17.69209975      12.60104530 
Ag      21.20235003      14.89140021      13.43954916 
Ag      20.46839800      11.85512922      13.94763014 
Ag      19.95449151      11.99998547      17.16132834 
Ag      19.11018383      12.01694707      19.97996370 
Ag      18.19105842      12.03728520      22.74969503 
Ag      11.44078795      14.47972216      17.60176218 
Ag       9.76588949      18.41039289      22.76164267 
Ag      10.33769773      24.84040499      20.69759233 
Ag      12.54887750      24.89508685      14.27404142 
Ag      12.98387080      18.45322110      12.42609205 
Ag      11.95892670      27.55805670      21.87813667 
Ag      10.73825018      18.78320191      25.93429508 
Au      12.95322528      11.74279079      19.09593687 
Ag      15.42312333      16.59561842      11.04804827 
Au      15.08728453      26.50804209      12.62728239 
Ag      14.54069608      26.69123659      25.50982187 
Ag      17.78842625      28.49079282      15.33166085 
Ag      19.40197291      18.85035504      10.44823579 
Ag      17.08502765      10.97411475      17.64883076 
Ag      14.02901700      15.76146281      26.95100796 
S      11.36328808      22.80578386      14.41376594 
S      11.39635013      18.26255086      14.23035018 
S      10.20098324      16.46438608      18.15852844 
S       9.23498170      19.81879227      20.89193074 
S      10.03062678      23.69071496      18.59981222 
S      13.20770978      27.19480826      13.89018483 
S      10.11152442      26.22341851      22.65654202 
S       9.74037379      16.97221191      24.69383544 
S      12.10610854      12.25024455      16.94605291 
S      14.15995257      18.52577773      10.33132252 
S      13.19462022      26.64000028      18.05754149 
S      11.18646438      22.20858345      23.79042575 
S      12.02516445      14.95044134      21.70108177 
S      14.10357408      14.95437137      14.44498886 
S      15.09099476      22.16239235      12.28541093 
S      16.92339146      25.97028140      11.27009006 
S      13.55565690      29.26552874      21.37957971 
S      11.47056327      20.35680482      27.58387874 
S      13.76190682      11.02975437      21.18014121 
S      16.71104812      14.58006073      11.17059683 
S      18.35088107      20.80530087       9.46287629 
S      16.18292205      29.75255119      16.67066880 
S      12.82179246      25.41611301      26.64262060 
S      13.07502801      13.79125872      25.89352718 
S      16.49798335      11.10547615      15.28111474 
S      20.71753801      16.81092857      10.41312046 
S      19.55621951      28.23665790      13.68299714 
S      15.96858031      28.59297843      25.03237073 
S      14.67919046      17.16138990      28.81643251 
S      17.68370422       9.98492461      19.77429886 
S      20.76471844      10.18002603      15.65723077 
S      20.07225629      13.20022979      11.99582316 
S      22.70451821      21.45091803       9.62079586 
S      20.44676052      25.49371278      10.83478617 
S      20.07309352      31.02477188      18.00039771 
S      16.97807166      30.49546019      21.61007400 
S      16.32906215      25.55322508      29.26987025 
S      14.50040649      21.11655022      29.56809087 
S      16.80804884      12.66377162      27.74477829 
S      16.36991601      10.53038994      23.58062661 
C       9.66223047      23.20721363      14.97638639 
C      10.05734192      19.47926303      13.94038460 
C       9.10709884      16.80057850      16.72113942 
C       8.06759428      18.86719506      19.84323114 
C       8.51772326      22.66464466      18.73629053 
C      12.03942338      27.86664233      12.63591187 
C       8.63674000      27.29717064      22.39034957 
C       7.99345147      16.93038909      25.28592080 
C      10.55409625      11.26253437      16.85255572 
C      12.99939924      17.86406961       9.05950069 
C      11.53608099      27.05531159      17.37365545 
C       9.39362012      22.47972084      23.49504124 
C      10.21865624      14.62103754      21.56246069 
C      12.36354494      14.73360744      13.89345298 
C      13.51809553      22.25422710      11.33623687 
C      16.21553639      25.11485916       9.80673703 
C      12.95544817      30.08594532      19.84773492 
C      10.35086674      21.80884446      27.46506428 
C      12.29732651      11.00534243      22.28892147 
C      15.49154386      13.22689374      11.40922298 
C      17.02077345      20.17783307       8.36213596 
C      14.84396824      30.27434361      15.52611874 
C      11.23016099      26.27600016      26.32498387 
C      11.26692350      13.82877110      26.21472484 
C      14.82175401      10.38746287      15.09256715 
C      22.05288188      17.20261347       9.20858003 
C      20.47691025      29.82827779      13.76379435 
C      16.37377738      29.23067999      26.71107865 
C      15.21506374      15.94168377      30.08548332 
C      18.83008814       8.62593112      19.29867369 
C      19.52916757       8.86721922      15.29285269 
C      21.23323994      12.66520245      10.68050056 
C      21.82714797      21.04146944       8.05723742 
C      21.43225741      26.84701529      10.08576555 
C      19.08351558      32.06795969      16.85424935 
C      17.32186331      31.88292859      22.76144331 
C      14.84983744      26.60429135      29.56417429 
C      14.78093345      20.53687066      31.28202707 
C      15.20109595      12.30043749      28.55651424 
C      17.05958787       8.85767700      23.88474565 
H      31.71979322      22.20204086      25.64025636 
H      31.78643632      23.69515128      26.62374012 
H      31.20569061      23.76035637      24.92301023 
H      31.51793786      19.50918555      26.15738361 
H      31.47767485      19.03261719      27.88046394 
H      30.48064275      20.40782988      27.30444433 
H      32.34800953      17.85224704      23.95866886 
H      32.60822233      16.10602334      24.23789406 
H      31.26119575      16.96179721      25.06496306 
H      33.78170812      18.98738237      20.53364018 
H      32.44504846      18.07655073      21.31710389 
H      32.96145784      19.65806051      21.97346651 
H      33.26949415      23.55345092      22.02696509 
H      32.41841193      22.18688091      21.21980644 
H      32.54455810      22.24185437      23.00537541 
H      29.78156731      27.99548230      27.85023141 
H      28.94235399      27.09983067      29.15427531 
H      28.36266669      28.72175619      28.66706232 
H      32.09958827      27.90151861      17.46080540 
H      33.02311840      26.52557147      18.14043737 
H      32.21567666      27.69063095      19.23462694 
H      33.08656253      16.54371739      14.70803395 
H      33.63720563      16.39037283      16.40319382 
H      33.44525200      18.00855837      15.66817039 
H      30.11726476      10.27338097      24.14105584 
H      30.93244365      11.60845046      25.00892944 
H      31.05444771      11.49287289      23.22934909 
H      28.68278769      18.53199616      32.07015903 
H      28.41680864      16.86239148      31.49028328 
H      27.34845520      17.55122883      32.74726960 
H      29.87314414      27.89230018      22.87126693 
H      30.06391873      26.25726140      23.57914786 
H      29.25538036      27.55227565      24.52768950 
H      31.96446907      22.00759767      16.23503041 
H      31.83666047      22.09635503      18.02219575 
H      31.62966720      23.58459297      17.03585476 
H      31.24418279      14.94773804      18.36876532 
H      30.94519683      13.62136093      19.54903501 
H      31.18008410      15.30057347      20.13233544 
H      28.67303819      13.70935458      26.62943921 
H      28.23797247      14.54755958      28.16339270 
H      29.02055952      15.46208041      26.83279504 
H      27.53129820      23.08381116      30.17268205 
H      28.31640553      22.00465085      28.97867593 
H      27.39486530      21.29645936      30.35141145 
H      23.90733645      24.41532776      31.81418150 
H      25.42363521      25.37093044      31.80713520 
H      25.28199281      23.87995809      30.81278673 
H      28.87174847      30.67192925      20.87434726 
H      28.13840813      29.36441858      21.86633139 
H      27.17029039      30.79630183      21.42579915 
H      31.45758838      21.28720094      12.79223343 
H      30.60538471      22.01641103      14.19644810 
H      30.01608269      22.32292956      12.54157321 
H      28.42024670      10.90516139      17.51325813 
H      29.51653817      10.39532497      18.83646966 
H      29.23008426      12.13985988      18.51446248 
H      24.64367040      12.32132292      29.23976423 
H      25.79486316      13.00730700      30.43090504 
H      25.95140684      13.39996900      28.68450922 
H      24.46488574      21.15031237      32.85978113 
H      24.64729877      19.63448942      31.93252026 
H      23.51308599      19.70711377      33.32048219 
H      26.95611446      30.66857844      24.83213611 
H      26.51805210      29.35809762      25.96434453 
H      25.74419922      30.96926481      26.11367039 
H      29.77641541      27.06003507      13.88453975 
H      30.53627026      25.44113568      13.93468877 
H      29.96110005      26.19918119      15.44647757 
H      29.81153309      13.75702010      13.56749224 
H      30.07250136      13.04184452      15.18657347 
H      30.07897249      14.81808283      14.98902184 
H      26.03044716       9.28562005      25.46609495 
H      26.41026376      10.41404023      26.80125854 
H      26.85010013      10.84439803      25.12417335 
H      18.16368146      16.39156177      31.61963064 
H      18.40767572      18.15484597      31.45295472 
H      19.33186129      17.23261890      32.68119789 
H      19.55471326      29.77534527      27.66580220 
H      20.19108839      30.11546105      26.02955321 
H      21.09389995      30.66608500      27.47678532 
H      25.50631603      29.65156725      13.81595085 
H      23.81694530      29.87711608      14.36590029 
H      24.28622631      28.36901985      13.52343222 
H      25.28551648      16.70649815       9.96051419 
H      25.00429429      15.39403593      11.14149824 
H      26.62337507      15.60517963      10.40258755 
H      21.86089393       8.22386391      20.64946971 
H      21.44245460       8.97009243      22.21886969 
H      22.87729364       7.90499447      22.08611676 
H      21.45435226       8.20782200      24.74133838 
H      21.17276361       8.34554423      26.50322043 
H      22.46548474       9.32040704      25.72065435 
H      19.99490216      11.64564560      30.54794864 
H      18.63383330      12.44467037      29.68918079 
H      19.59376832      13.35522496      30.90689614 
H      18.84910142      20.16852152      33.18247250 
H      18.88549342      21.90898649      33.59268209 
H      20.25183591      21.16715932      32.69237784 
H      19.73740207      27.88874713      30.25476730 
H      19.52796320      26.97187802      31.77863561 
H      18.32830636      26.79158495      30.45560399 
H      21.96940499      33.06181275      23.52312794 
H      22.86968038      31.63011806      24.12793432 
H      21.35579266      32.14950332      24.93362983 
H      24.15744919      31.71582226      17.16005371 
H      23.91906527      32.83902767      18.53450901 
H      22.51385313      31.96233398      17.84240717 
H      26.25224578      26.51158248      10.26972115 
H      26.80098032      26.35106295      11.97196777 
H      25.69693137      27.68194697      11.50206526 
H      26.96511918      21.33903324       8.97645969 
H      25.24872485      20.87972140       9.23548229 
H      26.55802201      19.68412366       9.52807972 
H      25.69561036      12.89922583      11.35478576 
H      25.64004977      11.25918047      12.06567374 
H      26.44977073      12.59565029      12.95138582 
H      24.54934742       8.26517057      16.41292822 
H      22.87127870       8.87784213      16.58985266 
H      23.80846143       8.37769050      18.03977861 
H       9.16186519      23.80723885      14.20823231 
H       9.67798399      23.74787443      15.92876607 
H       9.11842939      22.26312788      15.10670642 
H       9.43745965      19.12133069      13.11025808 
H      10.46719956      20.46921250      13.71070521 
H       9.45008518      19.53775315      14.85187927 
H       8.36402486      15.99976138      16.63807312 
H       9.68482602      16.87880350      15.79402435 
H       8.59315189      17.75170246      16.90769134 
H       7.89642132      19.44226902      18.92470790 
H       7.11832400      18.75069838      20.37775786 
H       8.48009750      17.88601278      19.58439923 
H       8.46192618      22.02479259      17.84715875 
H       7.64807186      23.33136547      18.76220528 
H       8.54460054      22.03838614      19.63482069 
H      12.44932729      28.80454404      12.24383449 
H      11.08543748      28.06559256      13.13844820 
H      11.88137927      27.16211802      11.81463878 
H       7.73663583      26.69105670      22.54569617 
H       8.61866882      27.72203763      21.38281096 
H       8.66031103      28.10766282      23.12806048 
H       7.42102732      16.26716706      24.62706131 
H       7.54034691      17.92576977      25.28310380 
H       7.98377106      16.52757082      26.30537747 
H      10.03363949      11.54699983      15.93036802 
H       9.90420329      11.44766399      17.71234659 
H      10.81842111      10.19965704      16.81053344 
H      13.57507107      17.63549904       8.15499393 
H      12.25676512      18.63766544       8.83238192 
H      12.48962730      16.96020543       9.40463615 
H      11.67775325      27.52396162      16.39309286 
H      11.04346204      27.75252990      18.06170237 
H      10.93452594      26.14494582      17.27611919 
H       9.19699162      23.55715469      23.54546755 
H       8.84006796      21.95546120      24.28364048 
H       9.10407856      22.07932021      22.51747758 
H      10.07399732      13.55824345      21.33652921 
H       9.79660560      15.23156131      20.75612095 
H       9.75002081      14.87644968      22.51987417 
H      12.34492298      14.72440203      12.79684374 
H      11.72541863      15.54364805      14.26164213 
H      12.00933727      13.77040063      14.28015717 
H      13.56036419      21.49234220      10.54907725 
H      13.43317869      23.25626267      10.89994645 
H      12.66842861      22.06675331      12.00237527 
H      15.63215940      25.82719768       9.21336171 
H      15.59251819      24.26296885      10.09819134 
H      17.06733966      24.75178613       9.21778205 
H      13.75370305      30.75836853      19.50946761 
H      12.05516910      30.66700786      20.07565453 
H      12.74562856      29.35819327      19.05650783 
H      10.78938366      22.60876584      28.07433833 
H       9.36715845      21.53831534      27.86406710 
H      10.25736404      22.16153599      26.43213809 
H      11.62021310      10.20032024      21.98371410 
H      11.77432656      11.96748302      22.28500086 
H      12.67897415      10.80811521      23.29874949 
H      14.93341582      13.07572648      10.47881788 
H      14.80478116      13.45258561      12.23377776 
H      16.05751766      12.31903354      11.65192649 
H      17.46864712      19.59619376       7.54890993 
H      16.50145251      21.04838105       7.94341131 
H      16.30070236      19.56034423       8.91021224 
H      15.23304201      31.04185889      14.84754630 
H      14.03322767      30.69950316      16.12999717 
H      14.45790972      29.42807315      14.94699564 
H      10.43295769      25.67021326      26.77252977 
H      11.03462500      26.38906224      25.25316855 
H      11.25288551      27.26000436      26.80621434 
H      10.81168832      13.00510414      25.65155724 
H      10.82077484      14.77620019      25.89171018 
H      11.08881397      13.67845110      27.28540940 
H      14.45968158      10.63751840      14.08816132 
H      14.12481764      10.78631714      15.83688276 
H      14.89837030       9.29880456      15.19561969 
H      21.61942117      17.24926944       8.20298942 
H      22.78903805      16.39092636       9.24872135 
H      22.54651265      18.15252110       9.44284513 
H      19.85642435      30.61507764      13.31943466 
H      21.39728057      29.71786940      13.17800919 
H      20.73250901      30.09863102      14.79423745 
H      17.15677052      29.99058737      26.60203865 
H      16.73126130      28.43421802      27.37325233 
H      15.47740072      29.69319554      27.13986197 
H      14.34207726      15.37822778      30.43418710 
H      15.64393465      16.50113797      30.92570851 
H      15.96822800      15.25030526      29.69155056 
H      18.25688764       7.83788572      18.79709943 
H      19.27337726       8.22279051      20.21694902 
H      19.62813484       8.98107227      18.63703792 
H      19.86369782       8.31816271      14.40529289 
H      18.53604214       9.29378319      15.11678107 
H      19.48924145       8.18329220      16.14874176 
H      21.25479982      13.45981419       9.92466439 
H      20.85227015      11.74107697      10.23093320 
H      22.24035106      12.50042086      11.07906415 
H      22.09079464      21.79575353       7.30730242 
H      20.74157799      21.02048055       8.20409565 
H      22.17178851      20.05736018       7.71845526 
H      21.28884880      26.82633565       8.99942455 
H      22.49687427      26.74527695      10.32438319 
H      21.04575338      27.79091977      10.48915021 
H      19.63334373      32.15431504      15.90975040 
H      18.97203673      33.06196414      17.30180987 
H      18.09867482      31.62412933      16.66990541 
H      16.96223693      32.81221078      22.30526924 
H      18.39180629      31.96303602      22.98335222 
H      16.76034453      31.68318765      23.68214344 
H      15.13542371      27.65039212      29.40208452 
H      14.53437697      26.47160137      30.60522888 
H      14.03211616      26.33752862      28.88569099 
H      14.61571441      19.45251970      31.29162178 
H      14.04445280      21.02769464      31.92952031 
H      15.79592259      20.77083924      31.62284233 
H      15.14991864      11.22343330      28.75157891 
H      14.36088517      12.61318945      27.92626887 
H      15.17776289      12.84506206      29.50778127 
H      17.15273634       8.37626548      22.90345103 
H      16.35784100       8.29228655      24.50815762 
H      18.03827820       8.91382038      24.37378553 
