646
Properties=species:S:1:pos:R:3 i=108 optimized=T E=-10152.6949643806 pbc="F F F" jobid=246_80-Ag-60_2-000002-PBE
Ag      21.88215982      20.16745280      20.90995570 
Ag      24.71341003      20.15482093      21.83297393 
Ag      20.47151664      22.70117951      20.46429421 
Au      19.73708344      20.97930584      22.73390702 
Au      20.03340100      18.13108153      21.86286194 
Au      21.15226427      23.47910991      23.16778833 
Ag      20.39732304      21.71865492      25.44244400 
Au      20.69503839      18.93117791      24.61261961 
Ag      20.91758322      16.07747768      23.73688151 
Ag      21.86192688      16.07185585      20.94152119 
Ag      22.73498403      16.09517846      18.10884284 
Ag      23.05916613      18.88605810      17.24621725 
Ag      23.32192112      21.68365992      16.40966034 
Au      22.63744461      23.42843797      18.61506987 
Au      21.88114415      25.20089906      20.91359919 
Ag      23.34988574      22.66348639      21.37301367 
Ag      22.60530871      20.95337991      23.65846663 
Ag      22.85858578      18.13490164      22.80400017 
Ag      23.75059106      18.12778792      19.97721665 
Ag      24.06656196      20.91559686      19.12372964 
Ag      20.82339568      14.00764705      19.02009565 
Ag      21.76989115      13.99949201      16.18603260 
Ag      22.10322485      16.85625114      15.31757815 
Ag      22.35811916      19.68949316      14.44222631 
Au      22.70418814      22.58734477      13.65689022 
Ag      21.96986567      24.29480592      15.87088597 
Au      21.18318996      26.04995391      18.15911426 
Ag      20.52013903      27.78226273      20.51524613 
Au      25.40519729      22.45992962      14.58236799 
Ag      24.82905765      24.23176934      16.75203753 
Au      24.05630976      25.91511074      19.07111968 
Ag      23.30335808      27.68137599      21.35488228 
Au      22.65610554      26.05536247      23.68875596 
Au      21.83934580      24.24715503      25.88058610 
Au      20.97562182      22.44624474      28.14232839 
Ag      21.30569467      19.64731733      27.39899746 
Au      21.58825428      16.89795592      26.47191309 
Ag      21.73878058      14.06761014      25.60021907 
Ag      22.77076801      13.99276266      22.80751658 
Ag      23.65861527      14.01602948      19.99044658 
Au      24.46703836      14.03683687      17.11191577 
Ag      24.89335569      16.80569284      16.23375024 
Ag      25.13721335      19.58319513      15.42213978 
Ag      23.57130494      18.89567748      25.59679497 
Ag      23.74375315      16.09373724      24.63604176 
Au      24.71712365      16.08711901      21.82893596 
Au      25.54329210      16.05971378      19.03679009 
Au      25.98172028      18.86552543      18.16414728 
Ag      26.16241162      21.60608759      17.26277281 
Ag      25.56090886      23.42465601      19.51398492 
Ag      24.73655639      25.16527945      21.78798990 
Ag      24.07133285      23.50062360      24.16118756 
Ag      23.22188677      21.70740239      26.37781055 
Ag      26.17444785      22.69446310      22.29171623 
Au      25.39873032      20.95218535      24.58422658 
Au      25.70842242      18.11090911      23.72853508 
Ag      26.64184654      18.10009344      20.87703615 
Ag      26.94649928      20.90804802      20.00015082 
Ag      27.56562785      20.15593506      22.74939278 
Ag      27.55701648      15.22117749      21.26407353 
Ag      28.41734142      17.29389365      18.67867420 
Ag      28.70137814      19.95661978      17.72581647 
Ag      28.44663057      23.20616563      18.86210267 
Au      27.64968776      24.94746880      20.88738560 
Ag      26.63307452      24.85789568      24.26086518 
Ag      25.87612429      23.28149699      26.46964125 
Au      25.56312168      19.97770644      27.47042993 
Au      25.85387192      17.33980666      26.70891082 
Au      26.64010799      15.29516602      23.94888113 
Au      28.40855096      17.48247101      23.07789503 
Ag      29.27688436      19.34165258      20.63505065 
Au      28.91376967      22.33080007      21.59507087 
Au      27.93819930      22.27525243      24.59564835 
Ag      27.69141435      19.34326920      25.50355324 
Au      25.50505821      13.32165071      22.16939426 
Ag      26.34129526      13.30343181      19.24542214 
Au      27.15055403      15.14556291      16.94680253 
Ag      27.53325517      17.92924075      15.94922944 
Au      27.65515402      20.76213538      14.94275009 
Ag      27.68303145      23.64635891      15.99021337 
Au      26.87991727      25.59661658      18.14137018 
Ag      26.01470571      27.43621343      20.36175718 
Ag      25.26297075      27.36140093      23.54169134 
Ag      24.36710860      25.73189869      25.95807466 
Ag      23.43330686      23.93568373      28.21892941 
Au      23.23128292      20.93015262      29.09515288 
Ag      23.54866082      18.05615349      28.37015806 
Ag      23.71791825      15.22834683      27.36382938 
Au      24.45321180      13.41691600      25.05813054 
Au      24.24665464      11.58610504      15.33773808 
Ag      23.95267949      14.81790793      14.32147781 
Au      24.17617277      17.60878967      13.51016566 
Au      24.48586203      20.40708201      12.69655277 
Ag      25.32199985      23.26905308      11.62329005 
Ag      24.22503014      25.09893405      14.04486095 
Au      23.32675522      26.73687762      16.30411707 
Ag      22.67248483      28.45815841      18.59757334 
Ag      22.40161817      30.53574975      20.98519422 
Ag      21.27316936      28.55655471      23.27608337 
Ag      20.43403449      26.82684321      25.52947840 
Au      19.68570294      25.03329603      27.71180150 
Ag      19.31330542      23.54772794      30.45767894 
Au      19.13664750      20.43964840      29.21478849 
Au      19.34294064      17.67896585      28.32608087 
Ag      19.65289098      14.92651378      27.49228254 
Au      20.50553730      11.79516579      27.07097013 
Ag      20.92380267      11.94763835      23.72369999 
Au      21.76637593      11.96589810      20.94244006 
Au      22.58088145      12.01422446      18.14626583 
Ag      29.57213641      14.52159245      23.38027966 
Au      31.32056497      18.41868321      18.11592127 
Au      30.68666451      24.99144764      20.07619460 
Au      28.50439562      25.03837764      26.65134956 
Ag      27.88872266      18.44125674      28.64655919 
Ag      28.80618579      27.65268284      19.03526893 
Ag      30.15330651      18.78428313      14.96265314 
Ag      28.05276892      11.95453812      21.69984139 
Au      25.37713219      16.48070511      30.10669118 
Au      25.77423017      26.29598485      28.46948555 
Au      26.66312911      26.61638302      15.23526014 
Ag      23.27700736      28.63754385      25.53648609 
Ag      21.45883984      18.84156834      30.55061555 
Ag      23.90471853      10.99397922      23.22362414 
Ag      26.89407715      15.70342393      13.89947825 
S      29.58538598      22.98381316      26.31849939 
S      29.55738566      18.44467939      26.91225037 
S      30.68742002      16.60638113      22.86734999 
S      31.66853021      19.79172766      19.98568814 
S      30.93518341      23.72367170      22.03903813 
S      27.54037935      27.13794587      27.13467690 
S      30.64148919      26.33762396      18.14655594 
S      31.29207459      17.04791364      16.20004801 
S      29.04614327      12.23511735      23.89387338 
S      26.67934536      18.34922852      30.74134617 
S      27.80915795      26.54619333      22.81085278 
S      29.76797132      22.16557691      17.03029627 
S      29.11353557      14.97544196      19.30416737 
S      26.78392793      15.06981783      26.40588038 
S      26.06471331      22.07667997      28.66754252 
S      24.06614683      25.64274959      29.93258555 
S      27.35236977      29.43510450      19.73854482 
S      29.36015097      20.27124019      13.25044424 
S      27.39608214      11.08575394      19.55113691 
S      24.11425061      14.53958664      29.72869505 
S      22.59299806      20.80832973      31.45589755 
S      24.98494890      29.74029008      24.19773420 
S      28.23755746      25.24241541      14.13276828 
S      27.91942182      13.81845039      15.05772862 
S      24.54223168      11.03603265      25.60019726 
S      20.18203708      16.77817800      30.47957220 
S      21.49110518      28.39551591      27.14373530 
S      25.16702556      28.31609357      15.91529422 
S      26.12595131      17.09053991      12.07448548 
S      23.15421659       9.94353524      21.15449563 
S      20.24519722      10.18978306      25.37018310 
S      20.80945001      13.21033856      28.91729700 
S      18.26870685      21.53209575      31.26290292 
S      20.36596711      25.66669739      29.98302630 
S      21.06422651      31.02325057      22.92204553 
S      23.91394382      30.53133325      19.12160396 
S      24.60081631      25.57104427      11.61783483 
S      26.33803274      21.10162981      11.24898566 
S      24.17905543      12.56559162      13.20028763 
S      24.35933802      10.45712519      17.40363821 
C      31.23639419      23.35257583      25.61643290 
C      30.83781210      19.69393489      27.31476940 
C      31.69747248      17.10241203      24.31465911 
C      32.87123452      18.88380834      21.03213424 
C      32.48521010      22.76732101      21.84448477 
C      28.67477266      27.91620295      28.35785517 
C      32.11359375      27.43400269      18.29641737 
C      33.01614409      17.11458135      15.55165715 
C      30.63798761      11.31140846      23.79464035 
C      27.82211999      17.65475935      32.00644955 
C      29.49942661      26.93694755      23.42053806 
C      31.55164673      22.51048774      17.32487273 
C      30.91598041      14.82239127      19.63187993 
C      28.53674737      14.98228259      26.93738524 
C      27.76257437      22.00068737      29.36163934 
C      24.90318463      24.63168906      31.21713567 
C      27.99779705      30.05917666      21.33998291 
C      30.43078787      21.76049270      13.30971395 
C      28.89010644      11.22741743      18.48994491 
C      25.36882282      13.21618365      29.50194268 
C      23.97185078      20.22389593      32.51303207 
C      26.33799838      30.26957866      25.32045943 
C      29.87232685      26.02664482      14.41276487 
C      29.73672588      13.94338412      14.86297171 
C      26.27490770      10.44714714      25.70518132 
C      18.79765185      17.08908270      31.64813504 
C      20.56953713      29.98140515      26.99803755 
C      24.73712998      29.15259391      14.33701977 
C      25.52671341      15.87595955      10.83214837 
C      22.00389040       8.62210165      21.70921088 
C      21.49771318       8.89424119      25.72643906 
C      19.65387158      12.61938721      30.21296194 
C      19.14598700      21.04202727      32.79999449 
C      19.27772021      27.02035611      30.56156658 
C      22.13198264      32.07326198      23.98763262 
C      23.35980959      31.87106494      17.99508961 
C      26.09998487      26.58370221      11.29407594 
C      25.94100248      20.57644880       9.54015703 
C      25.80107436      12.18379237      12.42838159 
C      23.62273209       8.79946345      17.15340077 
Ag      19.03040722      20.18783319      20.01364469 
Ag      16.16807523      20.20550747      19.07617999 
Ag      21.17902696      20.94346137      18.20064589 
Ag      20.91816118      18.15113429      19.05053982 
Au      19.75144486      23.49916517      17.75878738 
Au      20.54464355      21.73754994      15.50707720 
Ag      20.20746720      18.96238135      16.32303700 
Au      19.99143443      16.15124194      17.20076608 
Au      19.04024189      16.12389328      19.98144973 
Ag      18.16796675      16.10344549      22.80701650 
Au      17.86289407      18.90458920      23.67195153 
Au      17.59287902      21.77534197      24.60028217 
Ag      18.28039812      23.46579281      22.30404704 
Ag      19.07822088      25.22859699      20.04836499 
Ag      17.58171727      22.69139304      19.56978092 
Au      18.30273482      20.96054933      17.28256135 
Ag      18.01658123      18.17581641      18.13107653 
Au      17.10397505      18.14043104      20.92193499 
Au      16.81299021      20.95822287      21.79927447 
Au      19.98174201      13.98077400      21.88821088 
Ag      19.02022753      14.04352045      24.73679268 
Ag      18.74484396      16.84356078      25.59854881 
Ag      18.50905922      19.69194163      26.48316207 
Ag      18.20994556      22.53841254      27.35232536 
Ag      18.98403925      24.28693519      25.07632538 
Ag      19.80880069      26.04415320      22.79535078 
Ag      15.49901754      22.53588668      26.44226941 
Ag      16.13584180      24.29589597      24.22054691 
Ag      16.97592852      25.98774920      21.94930991 
Ag      17.74181185      27.80664074      19.64741664 
Ag      18.37125288      26.09351883      17.30535814 
Ag      19.13878778      24.33367936      15.05033826 
Au      19.91624124      22.59869762      12.80114899 
Ag      19.55996473      19.76629808      13.50540581 
Au      19.30130737      17.01221391      14.40864659 
Ag      19.04339612      14.14727279      15.33442330 
Ag      18.05252274      14.06945461      18.06397564 
Ag      17.22417206      14.09808256      20.86371513 
Ag      16.31071844      14.09926707      23.75656670 
Au      15.96044001      16.81007642      24.61930740 
Au      15.74443592      19.65780750      25.49121946 
Au      17.30546325      19.00708930      15.29910037 
Au      17.15005331      16.20226179      16.20133904 
Au      16.07801630      16.06482212      19.00829326 
Ag      15.32207202      16.08381701      21.84058293 
Au      14.85174136      18.86447878      22.74815176 
Ag      14.76319899      21.67938816      23.67601842 
Ag      15.40013082      23.49703776      21.41998927 
Au      16.27911006      25.22775476      19.21178298 
Au      16.86414156      23.53044801      16.86369888 
Ag      17.71880805      21.82213664      14.57855242 
Ag      14.70350098      22.75955442      18.64040192 
Ag      15.43917136      21.01123087      16.30916200 
Au      15.17155214      18.16964902      17.15860666 
Ag      14.25098840      18.14485757      20.00493135 
Ag      13.96708555      20.96194431      20.91301607 
Ag      13.34076666      20.20469157      18.16265549 
Ag      13.30563285      15.24077767      19.66520100 
Ag      12.45991779      17.37095667      22.23173958 
Ag      12.22912739      19.98968895      23.25275987 
Au      12.51716051      23.29823564      22.03369795 
Au      13.18591389      24.99119849      19.98104772 
Ag      14.28413962      24.88040294      16.68354418 
Au      15.04854338      23.31961804      14.51979500 
Ag      15.25344111      20.05321045      13.47519194 
Au      15.06696609      17.36809993      14.12774863 
Au      14.15678528      15.34558101      17.00349412 
Ag      12.43385688      17.52977488      17.86339551 
Ag      11.63040944      19.44280337      20.30897176 
Au      11.95646595      22.33078599      19.31554587 
Ag      12.85893104      22.31481833      16.29868458 
Au      13.18099052      19.34187492      15.48356436 
Ag      15.35268154      13.27361347      18.70358006 
Au      14.62327337      13.35250102      21.60232188 
Ag      13.58498288      15.15729814      23.87778742 
Ag      13.37808409      17.93484261      25.05545388 
Au      13.24387231      20.82431833      25.99865100 
Ag      13.29324399      23.72949496      24.88716257 
Au      14.14082508      25.67295696      22.76256997 
Au      15.03989716      27.42818234      20.45605930 
Ag      15.72872252      27.42631853      17.50608657 
Au      16.59808784      25.78675010      15.08805511 
Ag      17.48373464      24.11075516      12.74825989 
Ag      17.55564962      21.15996790      11.82227054 
Ag      17.36074683      18.22191956      12.54844430 
Ag      17.19265472      15.34536128      13.44767700 
Ag      16.21623976      13.59687778      15.81569892 
Ag      16.81232174      11.73428499      25.64449273 
Ag      16.76250234      14.83706210      26.52511782 
Ag      16.64403240      17.61402804      27.39241721 
Ag      16.35804364      20.39595142      28.25071242 
Au      15.36327194      23.23180930      29.35204330 
Ag      16.83519040      25.16876894      26.89414785 
Au      17.72340842      26.77602544      24.66197763 
Au      18.44179730      28.48169887      22.41497511 
Au      18.40840171      30.70877637      20.05641729 
Au      19.82076439      28.55336872      17.76428466 
Ag      20.59024826      26.88238819      15.49243512 
Ag      21.33751630      25.16195565      13.22422056 
Au      21.39654545      23.72290612      10.40454523 
Au      21.68580220      20.50266963      11.72855076 
Ag      21.45879449      17.70922512      12.53715379 
Au      21.11130600      14.93714024      13.48598587 
Ag      20.48923772      11.86194107      13.90637975 
Ag      19.78979521      11.95672619      17.12421943 
Ag      19.03938618      11.97206589      19.98781780 
Au      18.10992281      12.07771508      22.77329253 
Au      11.22906861      14.40102127      17.53977108 
Au       9.62633453      18.35195037      22.92434290 
Ag      10.25261147      24.82654482      20.66602708 
Ag      12.46088215      24.88094839      14.26460148 
Au      12.90103421      18.42872429      12.16729631 
Ag      12.05008150      27.50390920      21.76988517 
Ag      10.76559093      18.90067620      26.01275329 
Au      12.86379933      11.74727025      19.18999724 
Ag      15.45906554      16.50376670      11.07759732 
Ag      15.04706877      26.28411452      12.65767176 
Au      14.33991748      26.65637722      25.69770764 
Ag      17.79480702      28.49855092      15.39064313 
Ag      19.39989003      18.94213469      10.42742107 
Au      16.90690082      10.90503829      17.44334505 
Au      13.83623314      15.69701310      27.11410180 
S      11.25466640      22.81405392      14.43271608 
S      11.44170078      18.37323737      14.00914408 
S      10.18095653      16.44641318      18.01991278 
S       9.22389293      19.66412723      21.02446139 
S       9.90250683      23.53492935      18.65573275 
S      13.12696550      27.15313302      13.83688524 
S      10.09457456      26.31349247      22.55463470 
S       9.75824562      17.02244028      24.86971426 
S      12.02318287      12.22950442      17.03504604 
S      14.22423819      18.41930149      10.22372834 
S      13.02249095      26.52774839      18.03721522 
S      11.14403808      22.22530939      23.76242388 
S      11.83312416      15.01013787      21.70770693 
S      14.06983599      15.09747721      14.54759695 
S      15.00817876      22.21633359      12.27724711 
S      16.81948860      25.85550002      11.10135652 
S      13.63163306      29.25504383      21.22343965 
S      11.42877403      20.55548701      27.62506193 
S      13.63537068      11.10326992      21.30860745 
S      16.65630986      14.41502488      11.21809422 
S      18.29429879      20.88455012       9.48069042 
S      16.07060411      29.70809258      16.63794770 
S      12.68427911      25.30694975      26.71938713 
S      13.03924082      13.81679590      25.92257987 
S      16.37931394      11.22211662      15.15622386 
S      20.64456175      16.85556951      10.33657148 
S      19.57183998      28.28633618      13.73112321 
S      15.85720671      28.35410513      25.07339918 
S      14.51335323      17.32586875      28.67849389 
S      17.46593079      10.08259343      19.57920265 
S      20.60323536      10.14810160      15.58445805 
S      20.18841665      13.25537364      11.95916627 
S      22.48255554      21.75005615       9.71943890 
S      20.43422909      25.78921830      10.95784549 
S      19.81772151      30.99267567      18.19773970 
S      17.03500537      30.48913945      21.95123293 
S      16.22139855      25.41873798      29.31682872 
S      14.40416720      21.10670651      29.65375682 
S      16.87379221      12.72233699      27.83692025 
S      16.45159325      10.48484019      23.60792402 
C       9.55691961      23.22228712      14.99976068 
C      10.08691024      19.55298767      13.66099131 
C       9.17601315      16.86191832      16.54223105 
C       8.08235868      18.68324176      19.97648241 
C       8.42019753      22.47630938      18.85130234 
C      12.01338906      27.76328441      12.50028168 
C       8.68113417      27.44465264      22.21195251 
C       8.03836259      16.98102890      25.53247993 
C      10.51692468      11.17881394      16.91912533 
C      13.15289440      17.73241508       8.89289404 
C      11.32825552      26.71737392      17.35269120 
C       9.37503878      22.52109711      23.36263279 
C      10.01153858      14.84796810      21.50245772 
C      12.36295030      14.79761706      13.94469710 
C      13.40417741      22.25509126      11.37791832 
C      16.10542413      24.86434604       9.72955392 
C      13.05843609      30.01138373      19.65258828 
C      10.35176311      22.02164422      27.39751270 
C      12.15708915      11.19630599      22.39256878 
C      15.38429372      13.13683983      11.56788774 
C      16.94801992      20.27694092       8.39215053 
C      14.75217210      30.14577705      15.43922146 
C      11.08599470      26.10890343      26.30281162 
C      11.22804701      13.76056315      26.21214100 
C      14.71037635      10.49992729      14.91128223 
C      21.96736208      17.25835203       9.12245422 
C      20.49518118      29.87387369      13.84628113 
C      16.28913850      29.16143627      26.66633089 
C      14.96618533      16.31912243      30.15000534 
C      18.51907706       8.62647288      19.18694555 
C      19.33367556       8.90919292      15.10284174 
C      21.47828142      12.83275613      10.72920028 
C      21.69745929      21.23346152       8.14463427 
C      21.53454817      27.06329800      10.22974391 
C      18.89389455      31.98864348      16.96648571 
C      17.52280081      31.83702647      23.09270204 
C      14.77936310      26.51353326      29.62374646 
C      14.71099930      20.69332349      31.41515137 
C      15.25382676      12.32721455      28.61286822 
C      17.23752510       8.84009055      23.79829393 
H      31.72431672      22.38861047      25.42506687 
H      31.81503053      23.91427290      26.35829036 
H      31.15921466      23.91422763      24.67982624 
H      31.54424950      19.73181269      26.47595080 
H      31.37017965      19.37948675      28.21945751 
H      30.40530463      20.68892326      27.46270811 
H      32.08867781      18.10933775      24.12457002 
H      32.53194187      16.39785761      24.40828789 
H      31.10388673      17.11514132      25.23516972 
H      33.81773663      18.78202649      20.49035238 
H      32.48291781      17.90078740      21.31792947 
H      33.03255470      19.48703329      21.93444184 
H      33.32763342      23.46742870      21.81313693 
H      32.46262788      22.15328559      20.93811384 
H      32.58017246      22.11778147      22.72356450 
H      29.59718783      28.19395354      27.83492536 
H      28.90292127      27.23350928      29.18090458 
H      28.18231719      28.81620381      28.74435614 
H      32.03819302      28.19729633      17.51272220 
H      33.01770554      26.83498657      18.13933296 
H      32.15651142      27.91856596      19.27574983 
H      33.01366258      16.66708849      14.55064371 
H      33.66044341      16.52631764      16.21491642 
H      33.38635115      18.14190067      15.49414538 
H      30.41310874      10.23852811      23.77855056 
H      31.23229656      11.54395056      24.68587929 
H      31.20734222      11.57577245      22.89906666 
H      28.54597693      18.43635141      32.26611034 
H      28.35288632      16.77483759      31.63245599 
H      27.24040888      17.38507245      32.89541862 
H      29.99608145      27.58329413      22.68718966 
H      30.07482719      26.01451151      23.54977705 
H      29.39756349      27.45592652      24.38064365 
H      32.12617662      22.04696346      16.51405381 
H      31.86309866      22.08365911      18.28398785 
H      31.70195439      23.59596536      17.32633312 
H      31.44320701      14.98177490      18.68386490 
H      31.11801601      13.81269081      20.00921877 
H      31.24284703      15.56311577      20.36863105 
H      28.92675059      14.01191418      26.60528639 
H      28.56635488      15.05070455      28.03188373 
H      29.12672426      15.79608279      26.50418084 
H      28.02298006      23.00290341      29.72384984 
H      28.48535678      21.69242874      28.59972746 
H      27.76013920      21.28579384      30.19326319 
H      24.10785966      24.19270051      31.83272048 
H      25.53588406      25.27800791      31.83460066 
H      25.49421207      23.82515568      30.76876032 
H      28.91743015      30.62793922      21.16353955 
H      28.18769931      29.24108221      22.04311519 
H      27.23010414      30.71824299      21.76464298 
H      31.39270616      21.51794234      12.84385937 
H      30.58015380      22.09890898      14.34120908 
H      29.92857967      22.55188735      12.73970340 
H      28.57893147      11.04031969      17.45476506 
H      29.62215210      10.47221374      18.79683600 
H      29.32974446      12.22943491      18.55514336 
H      24.82425703      12.32194364      29.17366938 
H      25.86503484      13.01926088      30.45824342 
H      26.10422905      13.48960837      28.73692974 
H      24.61009803      21.08548315      32.74279182 
H      24.57099968      19.45663964      32.01180186 
H      23.54825617      19.82303086      33.44125699 
H      27.17628302      30.61082080      24.70088756 
H      26.67245664      29.44414098      25.95770499 
H      25.98386790      31.09977411      25.94210274 
H      29.90820489      26.99024425      13.89285224 
H      30.62657435      25.35353804      13.98646017 
H      30.07275510      26.16502707      15.48079193 
H      29.99428038      13.63274508      13.84362852 
H      30.20130882      13.26093528      15.58474923 
H      30.09583970      14.96068331      15.04772912 
H      26.28032587       9.36318768      25.54118633 
H      26.64626464      10.66662184      26.71327909 
H      26.92080675      10.93741432      24.96926615 
H      18.05829232      16.28933719      31.52132016 
H      18.32287567      18.05747892      31.45600462 
H      19.19186930      17.06240999      32.67083751 
H      19.64111779      29.88439811      27.57369080 
H      20.32598406      30.21475566      25.95529412 
H      21.17733703      30.78697007      27.42589463 
H      25.62006750      29.69629789      13.98161185 
H      23.92783824      29.86165687      14.54994883 
H      24.40767355      28.43170730      13.58090887 
H      24.99494635      16.43010133      10.04946589 
H      24.84921197      15.13975256      11.27933501 
H      26.39413328      15.36791496      10.39468156 
H      21.46677924       8.24491613      20.83062334 
H      21.28213932       8.99684157      22.44358935 
H      22.59573471       7.81118921      22.15028211 
H      21.49974056       8.19354241      24.88299334 
H      21.19881980       8.36633990      26.63880476 
H      22.49579530       9.32804795      25.84927698 
H      20.03519965      11.68043318      30.62931959 
H      18.64592100      12.47547465      29.80842269 
H      19.64186391      13.39145354      30.99220965 
H      18.86421641      20.01258047      33.05042022 
H      18.81390469      21.71493268      33.59958077 
H      20.23231161      21.10676405      32.68036006 
H      19.57176297      27.93220068      30.02791022 
H      19.44394938      27.15310596      31.63740447 
H      18.22283832      26.79146993      30.37335002 
H      22.19204013      33.06928014      23.53449458 
H      23.13516607      31.64481260      24.09127227 
H      21.66350907      32.15106572      24.97582985 
H      23.83982043      31.70757069      17.02282771 
H      23.69404207      32.83012857      18.40756574 
H      22.27065654      31.87840678      17.87881962 
H      26.38203790      26.45308928      10.24307788 
H      26.92997858      26.28915377      11.94500271 
H      25.85189388      27.63647148      11.47385019 
H      26.65805897      21.05702755       8.86351945 
H      24.92055920      20.86224919       9.26137563 
H      26.05891762      19.48742588       9.48791585 
H      25.85697504      12.73370269      11.48128547 
H      25.84514009      11.10742412      12.22824083 
H      26.63022284      12.48139552      13.07883958 
H      24.33771633       8.18625924      16.59257669 
H      22.67073301       8.86465780      16.61454599 
H      23.46987529       8.37113913      18.15176118 
H       9.07954414      23.88358752      14.26841191 
H       9.57098070      23.69509627      15.98775448 
H       8.99020707      22.28445989      15.05984806 
H       9.52340282      19.18823759      12.79491108 
H      10.47664478      20.56054262      13.47606872 
H       9.43568185      19.56966500      14.54371905 
H       8.38310842      16.11529909      16.42487123 
H       9.79220516      16.90979200      15.63823711 
H       8.72631622      17.84558179      16.72688201 
H       7.91278334      19.26225580      19.05991571 
H       7.13142499      18.55474125      20.50476951 
H       8.51041560      17.70995853      19.71552919 
H       8.39304011      21.77028443      18.01220080 
H       7.53133573      23.11718997      18.81757495 
H       8.44555579      21.92025018      19.79421856 
H      12.43999237      28.68578771      12.08945259 
H      11.03166493      27.98015824      12.93712877 
H      11.89992342      27.02785527      11.69878381 
H       7.74725162      26.89227137      22.36815269 
H       8.70770764      27.83003021      21.18884248 
H       8.72999787      28.28247739      22.91723923 
H       7.43221057      16.33076089      24.89152285 
H       7.59628427      17.98060627      25.56749091 
H       8.08199878      16.56202010      26.54480348 
H       9.98501450      11.45373959      16.00090913 
H       9.86312240      11.32113423      17.78387605 
H      10.83888532      10.13249587      16.86132920 
H      13.78994005      17.54093476       8.02107823 
H      12.39183458      18.47766575       8.63532748 
H      12.66919138      16.80278833       9.20500158 
H      11.42225761      27.22010093      16.38225507 
H      10.74185351      27.33233114      18.04577806 
H      10.84680654      25.74214696      17.22631818 
H       9.17811196      23.59704730      23.43593978 
H       8.77320278      21.97056294      24.09608393 
H       9.14261993      22.15624785      22.35689601 
H       9.78973423      13.81457617      21.21132063 
H       9.65686302      15.53122753      20.72390258 
H       9.53380496      15.08652511      22.45933504 
H      12.38887806      14.78607380      12.84823799 
H      11.68861310      15.58776337      14.28948099 
H      12.03551869      13.82470057      14.32869891 
H      13.44203431      21.48756901      10.59620965 
H      13.28057194      23.25020560      10.93448699 
H      12.57902950      22.05070479      12.06864058 
H      15.44389435      25.49933147       9.12995679 
H      15.55479812      23.99471902      10.10418576 
H      16.94097172      24.51430750       9.11066810 
H      13.89034997      30.59237307      19.23557477 
H      12.21513985      30.67436740      19.87854015 
H      12.75628710      29.24554345      18.92987340 
H      10.81256134      22.85393007      27.94418041 
H       9.36471414      21.79979069      27.81875105 
H      10.26480756      22.29121569      26.33915246 
H      11.46208741      10.39504658      22.11833826 
H      11.67174056      12.17538184      22.31320220 
H      12.51249469      11.04755983      23.42001090 
H      14.78952536      12.96305830      10.66428513 
H      14.73276119      13.43418929      12.39784167 
H      15.91304968      12.21559104      11.84252761 
H      17.38568985      19.72509937       7.55287522 
H      16.40938001      21.15300496       8.01078534 
H      16.24703139      19.63420698       8.93478887 
H      15.13685615      30.90747083      14.75169690 
H      13.90854176      30.55881568      16.00530910 
H      14.41058400      29.27207391      14.87295562 
H      10.29094710      25.44351388      26.66147990 
H      10.97216470      26.25734105      25.22340545 
H      11.02007037      27.07021219      26.82416049 
H      10.83124249      12.93672938      25.60611810 
H      10.74926319      14.69796963      25.90896822 
H      11.03495435      13.56045525      27.27171293 
H      14.41218072      10.72459278      13.87974112 
H      13.97987642      10.93196611      15.60301159 
H      14.76566617       9.41436170      15.04845766 
H      21.51875844      17.40520864       8.13323094 
H      22.65746327      16.40674281       9.08195076 
H      22.52102899      18.15701268       9.41483962 
H      19.87625491      30.67393715      13.42367354 
H      21.41470580      29.77745058      13.25633021 
H      20.75492956      30.11690225      14.88196986 
H      17.09962139      29.87275287      26.46477112 
H      16.62255157      28.42848448      27.40888935 
H      15.40889996      29.69951593      27.03652343 
H      14.05948920      15.87450661      30.57502870 
H      15.41824656      17.00036365      30.88138327 
H      15.68448015      15.53331920      29.89344183 
H      17.90069866       7.85037048      18.72237927 
H      18.92045483       8.25369610      20.13743142 
H      19.34703961       8.89656832      18.52219345 
H      19.70893917       8.35321891      14.23609364 
H      18.37914993       9.38640255      14.85838975 
H      19.18923716       8.21882355      15.94231704 
H      21.57528739      13.68847631      10.05006209 
H      21.13420394      11.95448813      10.16977077 
H      22.43787407      12.61622546      11.21141125 
H      21.96702100      21.96840079       7.37745535 
H      20.60849191      21.17184354       8.24746282 
H      22.10490925      20.25250114       7.87265442 
H      21.36929752      27.09781748       9.14700702 
H      22.58831910      26.85372183      10.44596518 
H      21.23992437      28.02108399      10.67634523 
H      19.49205139      32.02202697      16.04829266 
H      18.78375027      33.00132081      17.37103768 
H      17.91214510      31.54750349      16.76082710 
H      17.15004561      32.78526000      22.68836365 
H      18.61094907      31.87795016      23.21885433 
H      17.03460326      31.63072270      24.05312765 
H      15.11490339      27.54877266      29.48903598 
H      14.44676893      26.36872140      30.65756625 
H      13.96253156      26.29754352      28.92683027 
H      14.43762424      19.63871623      31.54391058 
H      14.06464011      21.31533953      32.04451108 
H      15.76198718      20.84661550      31.68536097 
H      15.26267799      11.26987312      28.90122357 
H      14.42297054      12.52470285      27.92738826 
H      15.14074300      12.94765205      29.50966052 
H      17.36749631       8.41476665      22.79604394 
H      16.55739935       8.20613015      24.37973295 
H      18.20398399       8.91600634      24.30878331 
