646
Properties=species:S:1:pos:R:3 i=93 optimized=T E=-10243.3382262475 pbc="F F F" jobid=246_80-Ag-69_9-000006-PBE
Ag      21.90923456      20.17307598      20.88552737 
Ag      24.75055161      20.19922545      21.82783037 
Ag      20.49263252      22.66431986      20.42423635 
Ag      19.75686210      20.93018276      22.69858297 
Ag      20.03304037      18.12970177      21.83850320 
Au      21.16718870      23.47408123      23.12577030 
Au      20.42386551      21.68596813      25.40473159 
Ag      20.71897645      18.90995308      24.58778172 
Au      20.94955337      16.10632200      23.68485612 
Ag      21.89329067      16.10295901      20.91586613 
Ag      22.79097773      16.08279257      18.10158247 
Ag      23.11418532      18.87538944      17.21316482 
Ag      23.36670959      21.69079463      16.33801219 
Au      22.63448040      23.44174666      18.58512894 
Ag      21.86908415      25.16154122      20.86323044 
Ag      23.36598164      22.68363757      21.33643108 
Ag      22.63047010      20.95132336      23.61883485 
Au      22.90351382      18.16106887      22.79450979 
Au      23.78474263      18.15469646      19.94947473 
Ag      24.09747600      20.93180467      19.08979097 
Ag      20.94335243      13.98920392      18.99927815 
Ag      21.90820160      14.00010232      16.17540596 
Ag      22.22850641      16.80400199      15.30055555 
Ag      22.45463689      19.66753154      14.42674657 
Ag      22.78306652      22.55459653      13.55011136 
Ag      22.04813625      24.27740289      15.83547677 
Ag      21.21969675      26.03142454      18.13329190 
Ag      20.48627446      27.76423966      20.45000396 
Au      25.48805278      22.45082658      14.52536087 
Au      24.87363621      24.25618294      16.74471436 
Ag      24.00622430      25.92064969      18.97188879 
Au      23.20102763      27.66595510      21.29228265 
Ag      22.59460591      26.07741852      23.61719152 
Au      21.87555196      24.29310141      25.82273436 
Au      21.09683091      22.48154503      28.12163134 
Ag      21.43197651      19.68042735      27.37793733 
Ag      21.63926330      16.91085245      26.45605792 
Ag      21.79672253      14.03441534      25.52972264 
Ag      22.81761402      13.99027519      22.77063146 
Au      23.73197586      14.05576465      20.00721497 
Ag      24.62539969      14.05774710      17.17251469 
Au      24.99609537      16.77033635      16.25949289 
Ag      25.22318784      19.58833165      15.40162281 
Ag      23.62448362      18.91750437      25.54245956 
Ag      23.75246309      16.12510951      24.61951072 
Au      24.82755881      16.10677913      21.87484543 
Ag      25.59817417      16.08795040      19.05256034 
Ag      26.04674758      18.85208083      18.10802694 
Au      26.20055013      21.62296782      17.24331931 
Ag      25.58523637      23.48596903      19.47880293 
Au      24.72812515      25.18594024      21.72144962 
Ag      24.07968694      23.53730438      24.05416163 
Ag      23.25805567      21.77570607      26.30139915 
Ag      26.21491132      22.72515199      22.24381745 
Ag      25.47336102      20.99601155      24.57123511 
Ag      25.78213897      18.16367894      23.72684092 
Au      26.65850997      18.16028020      20.85837600 
Ag      26.96712490      20.95221088      19.96731610 
Ag      27.59396331      20.22523633      22.71139184 
Ag      27.57880194      15.28618227      21.29317176 
Ag      28.45601107      17.33796120      18.65961243 
Ag      28.72216550      19.94827636      17.64853754 
Ag      28.38281153      23.22944242      18.82495412 
Ag      27.64973868      25.02690048      20.88077347 
Ag      26.67766843      24.91747916      24.17407147 
Au      25.88379890      23.40525110      26.37653409 
Au      25.63026036      19.93586341      27.29297474 
Ag      25.92076690      17.27336983      26.57212863 
Au      26.72173587      15.39403485      24.00376222 
Au      28.51162034      17.54403806      22.98988510 
Ag      29.27269809      19.34092138      20.59793851 
Ag      28.97860063      22.44480099      21.56463539 
Au      28.01187297      22.32144152      24.52749539 
Ag      27.80806909      19.34871647      25.42915391 
Au      25.57330572      13.34217797      22.24085832 
Ag      26.36923997      13.26807527      19.37846571 
Ag      27.33973471      15.09725672      17.06007967 
Ag      27.58546680      17.86027086      15.88319900 
Ag      27.77327622      20.75684504      14.94512292 
Ag      27.69373633      23.72015564      15.97017253 
Ag      26.90926841      25.69867851      18.12517205 
Au      25.90098736      27.43918165      20.38656382 
Ag      25.27300064      27.43706874      23.39243855 
Ag      24.39721832      25.79893636      25.81695478 
Ag      23.47919990      24.09054025      28.12601014 
Ag      23.45347349      20.97686228      29.04203759 
Ag      23.61901965      18.04385947      28.27279321 
Ag      23.77750947      15.22561947      27.31920012 
Au      24.55597478      13.48885117      25.05306727 
Ag      24.10545390      11.67403991      15.29246867 
Ag      24.15260477      14.79368062      14.35790633 
Ag      24.32918360      17.58846551      13.50486243 
Au      24.56383025      20.36838999      12.69379863 
Au      25.51289011      23.32988058      11.56504072 
Ag      24.30196468      25.08627676      14.07612866 
Ag      23.36585161      26.77376127      16.27033449 
Ag      22.67193736      28.51613380      18.55737132 
Ag      22.46018503      30.55674693      20.98414292 
Ag      21.16916919      28.58369927      23.18810701 
Au      20.37805849      26.84617621      25.37814550 
Ag      19.74565498      25.09409072      27.66614260 
Au      19.50110303      23.54885397      30.47883519 
Ag      19.30030786      20.45504937      29.19540116 
Ag      19.49027837      17.66673419      28.30284591 
Ag      19.71326731      14.86497507      27.36830532 
Au      20.62388534      11.76703765      27.07406255 
Ag      20.96587994      11.90052332      23.64848557 
Au      21.82659611      11.92667368      20.87642629 
Au      22.81648816      12.02467616      18.12052567 
Ag      29.60791364      14.47805066      23.34594053 
Au      31.30819832      18.42120892      18.10337862 
Ag      30.55171523      24.89073479      20.06707847 
Ag      28.52690589      24.85458921      26.59563649 
Ag      27.91395133      18.41855059      28.53468427 
Au      29.01016728      27.63169149      18.80638180 
Ag      30.20224764      18.69982909      14.90652355 
Ag      28.07515296      11.90101114      21.69230054 
Au      25.40300674      16.50321581      30.02304132 
Ag      25.97202305      26.06701707      28.32606192 
Au      26.63335102      26.76511344      15.25515098 
Ag      23.18015909      28.56127546      25.53488478 
Ag      21.60581681      18.88064503      30.45319386 
Ag      23.97003152      11.03324196      23.32763164 
Au      27.11975328      15.59980316      13.80738847 
S      29.65920733      22.74833353      26.33026413 
S      29.61187257      18.30520348      26.83650104 
S      30.76193674      16.53087829      22.81313405 
S      31.62504488      19.86986284      19.92819608 
S      31.02441726      23.77662753      22.13967888 
S      27.79833571      27.08744522      27.11909045 
S      30.73002388      26.20743333      18.04229263 
S      31.27326340      16.98011182      16.23346561 
S      29.04104835      12.20558781      23.88873382 
S      26.66143862      18.41774842      30.60712953 
S      27.91879621      26.61873732      22.85052844 
S      29.73250241      22.19068754      16.97026868 
S      29.00857045      14.95870320      19.23293823 
S      26.91890445      14.96372027      26.42046667 
S      26.02107754      22.06932707      28.50137259 
S      24.23382167      25.62349093      29.92121246 
S      27.35712506      29.17329033      19.44301911 
S      29.43307513      20.17688507      13.18686436 
S      27.44718341      11.03596708      19.53452251 
S      24.15191537      14.54511464      29.69560471 
S      22.66038674      20.86270431      31.38544204 
S      24.91966938      29.70926141      24.31389808 
S      28.17654920      25.36077100      14.14906694 
S      27.91847009      13.74909252      15.04051755 
S      24.55630915      11.13615517      25.71471769 
S      20.29241804      16.84073717      30.49460976 
S      21.35907581      28.27831454      27.11775619 
S      25.19398986      28.46251113      16.03713405 
S      26.43121537      17.16277504      12.18425400 
S      23.31256504      10.00329325      21.23184799 
S      20.35676428      10.17322957      25.36772143 
S      20.81287139      13.23676068      28.89891303 
S      18.42290911      21.60316516      31.25798314 
S      20.53568872      25.59987655      29.97380056 
S      21.00651013      31.05395816      22.83724122 
S      24.00351884      30.55310600      19.14325265 
S      24.66293632      25.52577666      11.63221437 
S      26.42024314      21.17320691      11.26249284 
S      24.09528583      12.64461914      13.09258355 
S      24.50904238      10.43247582      17.32293572 
C      31.33904563      23.05689872      25.66593183 
C      30.94141492      19.48350940      27.29271506 
C      31.79874575      16.96970507      24.26092103 
C      32.80223807      18.99801394      21.03347130 
C      32.57161425      22.82334005      21.88350317 
C      28.91509943      27.73105160      28.43739015 
C      32.26119113      27.21635786      18.21130820 
C      33.01169877      16.95156139      15.62229995 
C      30.62236797      11.26139850      23.80985271 
C      27.78987830      17.80188752      31.92534808 
C      29.55733882      26.92567150      23.62850607 
C      31.53931065      22.50370880      17.12517975 
C      30.82196589      14.68916572      19.40775906 
C      28.67656507      14.78683979      26.92058693 
C      27.65072591      22.04953585      29.34758672 
C      24.92695866      24.49333716      31.19177218 
C      28.00368759      29.97361254      20.96216492 
C      30.54296467      21.64152823      13.22496841 
C      28.92946363      11.19520781      18.46148909 
C      25.40179348      13.21373444      29.49333106 
C      23.97237196      20.26276942      32.52180348 
C      26.22179249      30.15313223      25.52963938 
C      29.82040643      26.14744859      14.36031705 
C      29.73924276      13.72634985      14.80868793 
C      26.28590117      10.55085613      25.87382839 
C      18.95933483      17.22151538      31.70507393 
C      20.44921259      29.87162104      27.00498726 
C      24.77335702      29.39541800      14.50867351 
C      25.94394559      16.08911293      10.77255812 
C      22.19812252       8.62376608      21.71249351 
C      21.60908839       8.86820651      25.68212171 
C      19.52747798      12.69566402      30.09243740 
C      19.26512814      21.17810400      32.83296445 
C      19.47383739      26.90844266      30.69777372 
C      22.01156877      32.07470725      23.99014696 
C      23.54289907      31.97116967      18.07281546 
C      26.09270989      26.63276088      11.31168090 
C      26.08133314      20.72740194       9.51761240 
C      25.71867963      12.18910544      12.35730654 
C      23.73215853       8.78008955      17.18301570 
Ag      19.09292183      20.14342329      19.97720379 
Ag      16.23257296      20.14881171      19.03360846 
Ag      21.24143806      20.94407046      18.14266419 
Ag      20.96064673      18.12634297      19.01769828 
Ag      19.80139819      23.47216211      17.69879747 
Ag      20.62371569      21.75030801      15.42534613 
Ag      20.31208361      18.94350691      16.28521991 
Ag      20.06541672      16.09001011      17.17529138 
Ag      19.07259117      16.08259487      19.92888855 
Ag      18.18145997      16.10558536      22.74232753 
Ag      17.85863771      18.87663222      23.63214480 
Ag      17.64703730      21.69314997      24.53689356 
Ag      18.32986656      23.43989925      22.27076757 
Au      19.10266701      25.18415857      19.98439269 
Au      17.62889326      22.65539267      19.52743637 
Au      18.38130893      20.94058268      17.22536655 
Au      18.12217775      18.14146861      18.08278348 
Ag      17.16853190      18.10553377      20.88493142 
Au      16.90907972      20.90644374      21.77122356 
Ag      20.04123498      13.99647951      21.81344890 
Au      19.09513486      14.02081851      24.59583187 
Au      18.81150909      16.86291365      25.56072151 
Ag      18.60225001      19.67259764      26.45536434 
Ag      18.30643712      22.50664875      27.31561121 
Au      18.97882903      24.28816334      25.05082245 
Ag      19.75291322      26.04524660      22.72268408 
Ag      15.56873242      22.45664187      26.38617298 
Au      16.17516789      24.24721805      24.15658300 
Au      16.92222831      25.95378311      21.84871017 
Ag      17.74010723      27.70048557      19.57428803 
Ag      18.38976203      26.08343112      17.24466312 
Ag      19.21213078      24.29156291      15.00352379 
Ag      20.05945150      22.55886946      12.71611625 
Ag      19.69895921      19.71551674      13.51588082 
Au      19.42998337      16.94351150      14.42733244 
Ag      19.16407159      14.10340367      15.31874060 
Ag      18.13549615      13.98030654      18.02762529 
Ag      17.23827771      14.04271025      20.84322249 
Au      16.33029898      14.06171643      23.69767629 
Ag      15.96591295      16.80669442      24.61415140 
Ag      15.79152358      19.59276993      25.49704437 
Ag      17.41080182      18.93004523      15.27140534 
Ag      17.25598764      16.12964856      16.22397612 
Au      16.19638183      16.04672932      18.99297126 
Ag      15.37656274      16.04086455      21.82395109 
Au      14.95705076      18.82917118      22.72714138 
Au      14.82580441      21.61043284      23.65823477 
Ag      15.39299463      23.44603901      21.38448149 
Ag      16.27922910      25.17334376      19.12111025 
Ag      16.93021445      23.50449004      16.76875830 
Ag      17.81099477      21.79196719      14.58011164 
Ag      14.80939913      22.68574200      18.60121695 
Ag      15.52291685      20.96940819      16.27464745 
Ag      15.26350481      18.12176045      17.15094141 
Ag      14.29746398      18.05894583      19.96479402 
Au      14.01715258      20.89436190      20.86893784 
Ag      13.42087638      20.12838392      18.12824377 
Ag      13.44292688      15.21686998      19.60715703 
Au      12.52319370      17.34985334      22.20966569 
Ag      12.19775905      19.98136015      23.12379015 
Au      12.56093280      23.28697494      22.05109655 
Ag      13.29114106      24.99113390      19.97069521 
Ag      14.36563016      24.83585572      16.68900284 
Ag      15.07757852      23.28795318      14.46172290 
Au      15.37027734      19.98482550      13.45466033 
Au      15.18385337      17.35051770      14.18341099 
Ag      14.31372857      15.37444845      16.92941460 
Ag      12.46970822      17.46360054      17.80309565 
Ag      11.66466601      19.35599860      20.24950909 
Au      12.06371899      22.29850977      19.34251808 
Ag      12.96495095      22.29444966      16.36568775 
Ag      13.28679618      19.31741898      15.42589650 
Ag      15.42864295      13.29806240      18.64887730 
Ag      14.61487920      13.21996378      21.58812823 
Ag      13.63006860      15.14091670      23.89374206 
Ag      13.37201975      17.97212528      24.94405992 
Au      13.25690618      20.83178914      25.86205240 
Ag      13.36317044      23.72367994      24.85726421 
Ag      14.14003813      25.65438158      22.68832501 
Ag      14.98883853      27.43904209      20.44341808 
Ag      15.75007381      27.37357277      17.40141989 
Ag      16.64217651      25.71047628      15.03139247 
Ag      17.48889274      23.94380019      12.74127721 
Au      17.74163933      21.06863342      11.91448814 
Ag      17.51392410      18.15797745      12.49614182 
Ag      17.33540097      15.34689630      13.43364524 
Ag      16.33658467      13.49492609      15.74595290 
Au      16.56354879      11.51564946      25.44911074 
Au      16.91506202      14.79878825      26.48049510 
Au      16.75098763      17.55743840      27.37087629 
Au      16.51609277      20.39725473      28.19720220 
Ag      15.67815365      23.25418629      29.31753038 
Ag      16.85451568      25.04048801      26.87448386 
Ag      17.61604601      26.76772879      24.61607537 
Ag      18.31123426      28.48591053      22.34553323 
Ag      18.60337235      30.59086603      20.01686585 
Au      19.85416521      28.55228582      17.70733477 
Au      20.63053967      26.81157092      15.47945233 
Ag      21.40567679      25.13868615      13.22399025 
Au      21.52214502      23.67752570      10.36695937 
Au      21.80447519      20.41868279      11.68990506 
Ag      21.59594121      17.66163096      12.59260298 
Ag      21.28222949      14.87890322      13.43331291 
Ag      20.54293794      11.81397718      13.95699812 
Ag      20.00315292      11.94177610      17.14276919 
Au      19.13009607      11.96528549      19.94296928 
Au      18.16738448      12.01405361      22.70718921 
Ag      11.46986168      14.42361571      17.49450992 
Au       9.57893554      18.42133217      22.73655184 
Au      10.29908257      24.98152954      20.69137544 
Au      12.44117275      24.88835480      14.26048495 
Ag      12.97743332      18.35936151      12.40151824 
Ag      12.11978491      27.62306179      21.75930961 
Ag      10.74553854      18.85930115      25.93161977 
Ag      12.90326120      11.91449527      19.14089382 
Ag      15.48681466      16.53224444      11.00915600 
Ag      15.14336680      26.05040842      12.54921943 
Ag      14.50658076      26.57525889      25.58254940 
Ag      17.81796407      28.53445084      15.39082171 
Au      19.49018972      18.73153099      10.21928388 
Ag      17.06267485      11.04023497      17.39622267 
Ag      14.03787702      15.78342944      26.93483084 
S      11.33413542      22.83453470      14.52440741 
S      11.38777163      18.23207634      14.21178523 
S      10.21497487      16.39928388      18.03972602 
S       9.24041385      19.73384056      20.81885123 
S      10.13761450      23.72409050      18.71040648 
S      13.33500509      27.02845667      13.82524507 
S      10.27411937      26.31902349      22.62964194 
S       9.62336338      17.11303796      24.69897190 
S      12.23054479      12.23279555      16.84352915 
S      14.05744423      18.32445645      10.24751178 
S      13.19195486      26.60085784      18.03164518 
S      11.12553703      22.19528817      23.73752003 
S      11.92555186      15.01655888      21.63354395 
S      14.35081070      15.02278719      14.45777913 
S      14.85298077      22.06202045      12.25852364 
S      16.87332864      25.57424646      10.96513428 
S      13.62819858      29.38682745      21.16620359 
S      11.57858663      20.39984716      27.57823913 
S      13.44078420      11.04599525      21.30781530 
S      16.87515644      14.57643672      11.12437982 
S      18.33638302      20.69419415       9.56636709 
S      16.10229237      29.71527637      16.64895258 
S      12.80172050      25.25835194      26.70838585 
S      12.95986233      13.86201794      25.91453493 
S      16.53602031      11.12735431      15.02289644 
S      20.73698845      16.73987557      10.41931553 
S      19.58617437      28.22984408      13.74476998 
S      15.90149226      28.49387235      25.08063847 
S      14.74209451      17.25886717      28.74672964 
S      17.61493978      10.07024079      19.54485425 
S      20.74553697      10.09510137      15.62209715 
S      20.16258493      13.16588271      12.01483019 
S      22.53731102      21.67608082       9.66478717 
S      20.53404714      25.72590262      10.93495005 
S      20.00979938      30.99676491      18.10687031 
S      17.01264594      30.53425561      21.80334195 
S      16.37990928      25.55334760      29.25476677 
S      14.62574872      21.10325625      29.61131858 
S      16.74522439      12.56719950      27.54644911 
S      16.47901609      10.33143205      23.41476463 
C       9.65994640      23.24830169      15.14747833 
C      10.03965066      19.42847003      13.86617571 
C       9.12299532      16.73231831      16.60210010 
C       8.09597387      18.77790014      19.75310409 
C       8.59182883      22.74919536      18.85825975 
C      12.22671992      27.74899354      12.54076847 
C       8.82275278      27.43743205      22.43998382 
C       7.89890417      17.15501906      25.34635234 
C      10.72071018      11.18716273      16.66766331 
C      12.89711924      17.49940898       9.07735004 
C      11.54619579      27.06021349      17.34607316 
C       9.36028075      22.48559482      23.32580940 
C      10.10615683      14.84668498      21.43695234 
C      12.68115840      14.71511882      13.75033388 
C      13.17480755      21.94310281      11.52228366 
C      16.11615206      24.50622752       9.67609684 
C      13.01855851      30.08425433      19.58019859 
C      10.50260768      21.88488222      27.48632403 
C      11.94437850      11.26400501      22.35209538 
C      15.73125383      13.16590472      11.40371145 
C      16.88842503      20.16082489       8.57904108 
C      14.77022410      30.19208631      15.47788237 
C      11.18974682      26.07413095      26.37631750 
C      11.16155155      14.00851888      26.25339841 
C      14.87766342      10.37079708      14.79926295 
C      22.11330963      17.00071740       9.22738010 
C      20.52792797      29.80562253      13.84454848 
C      16.30901337      29.16639503      26.74468227 
C      15.26059281      16.06908905      30.04824625 
C      18.73218588       8.67363481      19.12063929 
C      19.48528807       8.83745824      15.16233875 
C      21.33442697      12.58750411      10.72604211 
C      21.68235701      21.17828002       8.12005183 
C      21.61746373      27.02424991      10.22407067 
C      19.00289878      32.00275415      16.94591339 
C      17.46065326      31.85236259      22.99822527 
C      14.86342898      26.55408227      29.53388070 
C      14.94282851      20.53293943      31.32301591 
C      15.16064087      12.28843788      28.42623060 
C      17.33785974       8.74247205      23.72536333 
H      31.79683456      22.08508278      25.44368678 
H      31.92845633      23.56977317      26.43460378 
H      31.30004087      23.65776952      24.75092448 
H      31.68524410      19.47625553      26.48607868 
H      31.41524318      19.14816785      28.22190031 
H      30.55090283      20.50020556      27.41136160 
H      32.23281464      17.96049979      24.07893643 
H      32.60265380      16.23002532      24.34984523 
H      31.20396499      16.99941215      25.18050133 
H      33.76756637      18.90108961      20.52500030 
H      32.41720274      18.01364305      21.32102166 
H      32.92241492      19.61965548      21.92943154 
H      33.41089169      23.52174345      21.79054961 
H      32.50951829      22.19195123      20.99091815 
H      32.72621217      22.18924211      22.76535774 
H      29.86748011      28.01623028      27.97547197 
H      29.09713124      26.98403279      29.21500090 
H      28.44804262      28.61616928      28.88476898 
H      32.23445451      28.02128758      17.46796862 
H      33.11600658      26.55962925      18.01051573 
H      32.35395921      27.64207832      19.21428843 
H      33.01112145      16.46136500      14.64141888 
H      33.61971452      16.36877814      16.32355826 
H      33.42172923      17.96094977      15.52831348 
H      30.38542371      10.19107289      23.80387034 
H      31.21306075      11.49671581      24.70282881 
H      31.20125592      11.50974997      22.91580225 
H      28.49491070      18.60721922      32.16335622 
H      28.34237391      16.91554149      31.60125923 
H      27.19399405      17.56283908      32.81365923 
H      30.09733351      27.64983508      23.00689041 
H      30.13287488      25.99555995      23.68717700 
H      29.39258398      27.33602192      24.63157213 
H      32.05359793      22.00102518      16.29774545 
H      31.90302484      22.10563115      18.07865729 
H      31.70808652      23.58538111      17.07484228 
H      31.29649402      14.91198083      18.44545936 
H      30.99368629      13.64255849      19.68530902 
H      31.21935052      15.35015287      20.18571995 
H      29.05580846      13.85130730      26.49145593 
H      28.70827362      14.74153595      28.01625016 
H      29.27443292      15.63693051      26.57662042 
H      27.82245827      23.04385504      29.77797772 
H      28.44949829      21.80987170      28.63768358 
H      27.60388853      21.29440855      30.14137865 
H      24.08494635      24.10644515      31.77899056 
H      25.60505742      25.05696752      31.84198071 
H      25.45527709      23.64904624      30.73541741 
H      28.86434775      30.59610966      20.69375323 
H      28.28267988      29.22701161      21.71387868 
H      27.19346834      30.60151305      21.35375779 
H      31.52716765      21.36238681      12.83327512 
H      30.63909961      22.04529348      14.23901486 
H      30.09287939      22.40582468      12.57941400 
H      28.61623260      10.96694838      17.43500973 
H      29.68974510      10.47411778      18.78147508 
H      29.33724464      12.21156773      18.49101661 
H      24.85306384      12.31532710      29.18371062 
H      25.89872657      13.03401026      30.45263639 
H      26.13614452      13.47061605      28.72151900 
H      24.53578811      21.13753381      32.86875404 
H      24.65709021      19.57079177      32.01990142 
H      23.50417299      19.76845882      33.38032734 
H      27.05401320      30.60087209      24.97314346 
H      26.58503803      29.27248894      26.07136935 
H      25.81967197      30.88768804      26.23609385 
H      29.83802616      27.09840706      13.81670457 
H      30.55933822      25.46376849      13.92433124 
H      30.05528202      26.31124766      15.41767198 
H      29.96799643      13.52175635      13.75709188 
H      30.13155840      12.91468141      15.43376993 
H      30.19246810      14.67453702      15.11731356 
H      26.27809114       9.45478515      25.84256691 
H      26.67183898      10.88765574      26.84332668 
H      26.92738663      10.94166287      25.07701720 
H      18.23173681      16.40153959      31.67612226 
H      18.45237977      18.16310123      31.46676288 
H      19.39726735      17.28153235      32.70801817 
H      19.49753904      29.75711524      27.53742906 
H      20.25403487      30.14956396      25.96328518 
H      21.04992153      30.64840625      27.49261015 
H      25.66385328      29.93029445      14.16003750 
H      23.99196013      30.11788670      14.77486356 
H      24.40315812      28.73191120      13.72031241 
H      25.48675664      16.73855167      10.01579179 
H      25.22160555      15.32499476      11.07979650 
H      26.83777202      15.61379391      10.35344817 
H      21.71555926       8.24294720      20.80440829 
H      21.43079244       8.95334456      22.42163377 
H      22.80574001       7.83025816      22.16356516 
H      21.58751202       8.17388489      24.83379340 
H      21.32753370       8.33376477      26.59638568 
H      22.61259089       9.29393629      25.78748222 
H      19.87471556      11.78635918      30.59595960 
H      18.57135821      12.50698250      29.59222183 
H      19.41922161      13.50463592      30.82532284 
H      18.87547187      20.20850694      33.16567110 
H      19.02026693      21.94477047      33.57635856 
H      20.35019085      21.11434270      32.69351134 
H      19.81528910      27.86018589      30.27233465 
H      19.61917158      26.91816914      31.78390039 
H      18.41709534      26.74573957      30.45831923 
H      22.13608177      33.06978680      23.54822091 
H      22.99185337      31.62009184      24.17159293 
H      21.46636602      32.16495100      24.93705462 
H      24.09676071      31.86963810      17.13145822 
H      23.84074225      32.90210557      18.56867355 
H      22.46562297      31.98589521      17.87238573 
H      26.37845671      26.53216178      10.25861467 
H      26.93809387      26.38535996      11.96235291 
H      25.76654415      27.66157216      11.50585210 
H      26.75673419      21.30509349       8.87567393 
H      25.03916728      20.93365680       9.24945366 
H      26.30015310      19.65784222       9.41150006 
H      25.85295202      12.76784757      11.43584920 
H      25.69865295      11.12032767      12.11598443 
H      26.54246914      12.40493671      13.04570297 
H      24.41302468       8.13472605      16.61524767 
H      22.76042051       8.83596364      16.67913273 
H      23.61268471       8.38760054      18.20010591 
H       9.11578974      23.79880460      14.37226299 
H       9.71109087      23.83626159      16.06948615 
H       9.14689010      22.29901516      15.34631311 
H       9.45015215      19.06489614      13.01691289 
H      10.43538376      20.42530536      13.64519953 
H       9.39885200      19.48300872      14.75490190 
H       8.39349987      15.92004678      16.51059322 
H       9.70389406      16.82976053      15.67833442 
H       8.59256961      17.67288415      16.79589995 
H       7.95789406      19.35433552      18.82969738 
H       7.13242147      18.67349863      20.26361322 
H       8.51105896      17.79420625      19.50838629 
H       8.54205965      22.08554707      17.98627957 
H       7.74134462      23.44007219      18.84411921 
H       8.58362536      22.14809514      19.77318381 
H      12.70503228      28.66034702      12.16259427 
H      11.26887295      28.00408630      13.00821649 
H      12.06058741      27.05135493      11.71521580 
H       7.90796506      26.84994001      22.57822115 
H       8.80821947      27.91695083      21.45739115 
H       8.88882716      28.20289746      23.22233082 
H       7.26594387      16.54780057      24.68926449 
H       7.50985837      18.17595367      25.39134657 
H       7.90863935      16.71844101      26.35211195 
H      10.23516347      11.43711774      15.71721163 
H      10.01744566      11.34936569      17.48936670 
H      11.02873358      10.13519968      16.65325698 
H      13.45065021      17.22813789       8.17088000 
H      12.10419414      18.21110545       8.81944915 
H      12.44976877      16.60142698       9.51264251 
H      11.70233768      27.52074595      16.36414432 
H      11.06730980      27.76921412      18.03147424 
H      10.92414002      26.16457071      17.24728911 
H       9.16036022      23.56041803      23.40123074 
H       8.75397415      21.93279589      24.05374938 
H       9.13352036      22.12583242      22.31734425 
H       9.89143923      13.80350604      21.17522127 
H       9.74979845      15.50899138      20.64092877 
H       9.63379467      15.10570141      22.39118895 
H      12.76678046      14.66972922      12.65807375 
H      11.99031354      15.51567998      14.03649665 
H      12.33345112      13.75372448      14.14747157 
H      13.20523818      21.18716154      10.72867944 
H      12.92504202      22.92638425      11.10515122 
H      12.43025879      21.67291818      12.27771560 
H      15.44300720      25.11028134       9.05801164 
H      15.57007829      23.66617273      10.12103573 
H      16.93330066      24.11586657       9.05702463 
H      13.79939492      30.75631251      19.20271753 
H      12.09892496      30.65110663      19.76198725 
H      12.84005509      29.29853663      18.83826189 
H      11.02128039      22.70102777      28.00460952 
H       9.55733502      21.65981575      27.99316490 
H      10.31897062      22.17960418      26.44717954 
H      11.16902118      10.56243345      22.02574905 
H      11.56904720      12.29217133      22.30596422 
H      12.23367895      11.04029555      23.38626431 
H      15.18550886      12.95626479      10.47714294 
H      15.02826514      13.37334987      12.21831025 
H      16.34473079      12.29877167      11.67836897 
H      17.25037658      19.70487499       7.65055435 
H      16.30938614      21.06289727       8.34616562 
H      16.25550789      19.45492099       9.12693822 
H      15.14562681      30.96886157      14.80225714 
H      13.93542364      30.59330429      16.06538335 
H      14.42057925      29.33099424      14.89830278 
H      10.39695614      25.41214883      26.74506436 
H      11.03822744      26.25155288      25.30653797 
H      11.15276390      27.02448409      26.92056649 
H      10.65638653      13.19370175      25.72046954 
H      10.76075868      14.96609574      25.90482031 
H      10.98674598      13.90096897      27.32970136 
H      14.57570455      10.53412425      13.75758845 
H      14.13529420      10.82485505      15.46535015 
H      14.94453737       9.29440515      14.99322087 
H      21.71372376      16.99741011       8.20709557 
H      22.80893809      16.16134747       9.34971322 
H      22.64034210      17.94048502       9.42286419 
H      19.94011293      30.59231167      13.35681821 
H      21.47586542      29.67269771      13.30949857 
H      20.73277257      30.08364750      14.88403479 
H      17.07808498      29.93764413      26.61711683 
H      16.68487545      28.38769142      27.41757856 
H      15.40814114      29.62152809      27.17211271 
H      14.36134210      15.60821642      30.47401043 
H      15.79153168      16.62584309      30.82971518 
H      15.91935683      15.29467717      29.64138013 
H      18.12761089       7.86976016      18.68418681 
H      19.19889443       8.31876131      20.04736046 
H      19.51129717       8.98075117      18.41372953 
H      19.83878105       8.30638321      14.27132566 
H      18.51355023       9.30234663      14.96171282 
H      19.38908738       8.12787356      15.99263091 
H      21.34711331      13.34775659       9.93568002 
H      20.96507013      11.64059538      10.31622088 
H      22.34256613      12.45139530      11.13347128 
H      22.00359661      21.85984245       7.32382459 
H      20.59485103      21.21311027       8.23606017 
H      21.99473892      20.15546569       7.87794356 
H      21.44688761      27.07465084       9.14272582 
H      22.67398677      26.82095033      10.43031880 
H      21.31708860      27.97209109      10.68746004 
H      19.51867734      32.03783092      15.97917212 
H      18.93161981      33.01633770      17.35751724 
H      18.00191197      31.57636140      16.81617382 
H      17.10480270      32.81244335      22.60715714 
H      18.54308582      31.89396779      23.16383710 
H      16.94356582      31.62494819      23.93828917 
H      15.09793610      27.60227257      29.31399649 
H      14.58308647      26.45845362      30.58902075 
H      14.03961679      26.22146509      28.89313374 
H      14.79021732      19.44706807      31.34290484 
H      14.21403957      21.01875582      31.98292513 
H      15.96041809      20.78035365      31.64531916 
H      15.09805181      11.22110719      28.66834030 
H      14.30649690      12.59034345      27.80995459 
H      15.18186561      12.87381499      29.35304945 
H      17.55217928       8.29776728      22.74592894 
H      16.66042647       8.08820727      24.28666284 
H      18.26659554       8.89393094      24.28684050 
