646
Properties=species:S:1:pos:R:3 i=77 optimized=T E=-10337.7227255534 pbc="F F F" jobid=246_80-Ag-80_1-000001-PBE
Ag      21.85468812      20.15677729      20.89985416 
Ag      24.67877771      20.15492346      21.80311769 
Ag      20.44778648      22.67571833      20.44384760 
Ag      19.71708208      20.94799409      22.72644602 
Ag      19.99205817      18.13053990      21.85828710 
Au      21.13077411      23.48672489      23.14690870 
Ag      20.38150734      21.72991007      25.43994932 
Ag      20.67743512      18.94235396      24.60456913 
Ag      20.90950615      16.13127822      23.69749508 
Au      21.85739615      16.08688341      20.94102624 
Ag      22.71307969      16.09467905      18.11409270 
Ag      23.02716208      18.88138237      17.22355659 
Ag      23.29714224      21.70909754      16.35488545 
Au      22.59802439      23.46432474      18.59029950 
Ag      21.82405982      25.17140154      20.87168891 
Ag      23.31349147      22.67267240      21.34267556 
Ag      22.57560994      20.96312757      23.61755563 
Ag      22.84223236      18.14548371      22.78839948 
Ag      23.74588170      18.12699683      19.97596517 
Ag      24.02629991      20.92212573      19.09984684 
Au      20.89286519      13.98187735      18.99693578 
Ag      21.83744119      14.02159420      16.16796833 
Ag      22.11549643      16.84656398      15.31300730 
Ag      22.34775960      19.70685260      14.40921675 
Ag      22.66247241      22.54369263      13.56762526 
Ag      21.95672691      24.28256713      15.82656052 
Ag      21.16965957      26.04588552      18.13469386 
Ag      20.46414842      27.77834771      20.43835131 
Ag      25.37506586      22.45512860      14.51891743 
Ag      24.77239625      24.25665035      16.71291551 
Ag      23.97036781      25.95364791      18.99201976 
Au      23.20695706      27.66130205      21.28414175 
Ag      22.57572400      26.08962127      23.62522936 
Au      21.82911272      24.27130824      25.84838271 
Ag      21.04730557      22.54117679      28.13021909 
Ag      21.38698029      19.73653368      27.39984732 
Ag      21.55456099      16.96851989      26.45166568 
Au      21.80930843      14.13163089      25.52864421 
Ag      22.82035794      13.99432227      22.83891399 
Ag      23.66693930      14.04083201      20.03632741 
Au      24.52565445      14.06495571      17.20014371 
Au      24.93657104      16.81725856      16.29057478 
Au      25.15220853      19.64014161      15.41602483 
Ag      23.55029835      18.95463761      25.55948286 
Ag      23.72391859      16.16294728      24.67295093 
Ag      24.72470380      16.02996187      21.90177690 
Ag      25.51864838      16.06120913      19.06764294 
Ag      25.94911952      18.84602548      18.12350618 
Ag      26.09126454      21.66647991      17.24323453 
Ag      25.48738103      23.47161413      19.48355450 
Ag      24.66132957      25.17565137      21.71179086 
Ag      24.02920929      23.53975075      24.07655519 
Ag      23.20688973      21.77780010      26.31356606 
Ag      26.14228112      22.68899276      22.23569378 
Ag      25.41304314      20.98332422      24.53874721 
Au      25.67515266      18.13663854      23.70673217 
Ag      26.58724975      18.09118005      20.87303397 
Ag      26.87014270      20.90753224      19.97996183 
Ag      27.51709301      20.16623980      22.71057168 
Au      27.43537302      15.19879996      21.27773802 
Ag      28.34355923      17.34489255      18.65820502 
Ag      28.59450376      19.96447442      17.71197688 
Ag      28.28183280      23.17711777      18.81053116 
Ag      27.57938277      24.95043263      20.88734483 
Ag      26.58426727      24.85635061      24.13702580 
Ag      25.81811155      23.32843826      26.36785368 
Ag      25.57719454      20.04018606      27.30206179 
Ag      25.77767185      17.29956367      26.59097558 
Ag      26.67615318      15.36423769      23.96038512 
Ag      28.43921536      17.48271462      22.98195462 
Ag      29.23005456      19.37225536      20.57528278 
Ag      28.91272317      22.34475022      21.53611548 
Ag      27.96270843      22.30761418      24.53086022 
Ag      27.68287646      19.27632181      25.42306900 
Ag      25.50551206      13.26823396      22.27533251 
Ag      26.26097816      13.21690472      19.31810493 
Ag      27.24323754      15.11028987      16.99264226 
Ag      27.54762987      17.89631424      15.87439170 
Ag      27.69813014      20.77397672      14.97651272 
Ag      27.57894360      23.73785138      15.96227249 
Ag      26.79370083      25.64026432      18.16434882 
Ag      25.92311097      27.47690047      20.36585043 
Ag      25.25506134      27.40901385      23.35984139 
Ag      24.37439762      25.82113675      25.81612349 
Ag      23.48430028      24.09664898      28.11335762 
Ag      23.41973621      21.06393448      29.06184428 
Ag      23.58731020      18.14496629      28.30174588 
Au      23.58666753      15.30257737      27.42293225 
Ag      24.66695932      13.53688786      25.20932669 
Ag      24.13924527      11.72041667      15.33350861 
Ag      24.09934424      14.82758729      14.38489249 
Au      24.16238658      17.62371312      13.51817866 
Ag      24.51555564      20.39888474      12.64245659 
Ag      25.31421033      23.31656949      11.63335686 
Ag      24.10349174      25.04480656      14.00830123 
Ag      23.29689261      26.75598936      16.25223853 
Ag      22.58352440      28.50293706      18.52486555 
Ag      22.55569842      30.57643371      20.88342248 
Au      21.15567250      28.58160972      23.21532364 
Au      20.36207577      26.83034783      25.43110838 
Ag      19.70834630      25.09834994      27.71286640 
Ag      19.29314187      23.42635454      30.41876279 
Ag      19.23988021      20.48740366      29.19610716 
Ag      19.42437097      17.69090014      28.30530012 
Ag      19.72644676      14.87965346      27.45479660 
Ag      20.47889206      11.82882552      26.95072162 
Ag      21.03525594      11.93163217      23.76048044 
Au      21.79503884      11.97445634      20.92427344 
Ag      22.73649505      11.96816261      18.12573549 
Ag      29.54125480      14.48434336      23.26301622 
Ag      31.12835387      18.46670899      18.19316769 
Ag      30.48401569      24.78286734      20.18059971 
Ag      28.42700245      24.74926338      26.58869731 
Ag      27.80125766      18.40754159      28.52246535 
Ag      28.90545612      27.48212104      19.00713858 
Au      30.22243643      18.53228676      14.84952103 
Ag      28.03734876      11.87748629      21.67618807 
Au      25.35910001      16.67213191      30.12447565 
Ag      25.87064281      26.16922263      28.33050164 
Ag      26.41954336      26.56970315      15.28282917 
Au      23.34384236      28.65647508      25.62251734 
Ag      21.59243510      18.95894623      30.46052859 
Au      24.03188156      10.90396857      23.44031451 
Au      27.05938547      15.64784700      13.78246158 
S      29.53391318      22.61887586      26.45842415 
S      29.45498499      18.15302761      26.79283979 
S      30.73088576      16.52084514      22.75532220 
S      31.60880588      19.96202240      20.01733599 
S      30.85692570      23.72896526      22.31214492 
S      27.74557120      27.00912785      27.06878961 
S      30.63129336      26.04430972      18.13166705 
S      31.22483197      16.95687665      16.30460244 
S      28.86651043      12.25778452      23.90622687 
S      26.63968890      18.58494321      30.64465506 
S      27.80174954      26.59926022      22.80957926 
S      29.60075268      22.15887311      16.92287109 
S      28.87985942      14.95885390      19.21083331 
S      26.71151663      14.93601124      26.41658376 
S      25.90535020      22.16038870      28.61963619 
S      24.06898312      25.76707035      29.85845625 
S      27.42988903      29.28357237      19.55250428 
S      29.32121855      19.98246120      13.23906125 
S      27.33455677      10.98631690      19.56804578 
S      24.04849167      14.75485110      29.78556208 
S      22.54977351      20.99209599      31.38850055 
S      24.96518560      29.71656770      24.27363653 
S      28.08968600      25.27780148      14.08055019 
S      27.91589500      13.80095259      14.97119107 
S      24.50511524      11.09668938      25.74178435 
S      20.37635413      16.86329029      30.42913378 
S      21.67500368      28.01376558      27.16334348 
S      25.01263832      28.48395158      15.75811260 
S      26.25258162      17.24431445      12.24439017 
S      23.51682789      10.24227255      21.23530165 
S      20.18218828      10.13028840      25.26888362 
S      20.84858072      13.18154697      28.90177661 
S      18.24092325      21.43094899      31.26811982 
S      20.35770278      25.55177584      30.08095860 
S      21.10714444      31.01464685      22.75058759 
S      24.03079029      30.48094063      18.99793816 
S      24.50169640      25.58457159      11.59723983 
S      26.46494408      21.23146458      11.32707625 
S      24.05149694      12.67886959      13.12363857 
S      24.44391441      10.35929484      17.29711595 
C      31.23918232      22.96497320      25.87259567 
C      30.83182122      19.29165071      27.21390349 
C      31.76621101      16.92050887      24.21734949 
C      32.78692707      19.07003019      21.10739729 
C      32.44185332      22.81565661      22.15326360 
C      28.91096493      27.64246497      28.35052180 
C      32.16939180      27.05435394      18.26033923 
C      32.98314108      16.89316773      15.75977191 
C      30.39558188      11.23396064      24.01693051 
C      27.81566953      18.00380936      31.93757835 
C      29.42713134      27.02214732      23.56357996 
C      31.41575394      22.43358398      17.07085081 
C      30.68374657      14.68699366      19.45138141 
C      28.42086114      14.51267433      26.95249958 
C      27.45550183      22.19910142      29.61229738 
C      24.73891938      24.72587328      31.21601089 
C      28.05234956      30.02342545      21.11472365 
C      30.47831593      21.40655959      13.15443007 
C      28.77529041      11.14449272      18.43661295 
C      25.24343195      13.37193718      29.62742894 
C      23.88283104      20.49873189      32.55214978 
C      26.36217851      30.14694795      25.38182240 
C      29.71492258      26.08673520      14.36504949 
C      29.73344955      13.82470833      14.72737765 
C      26.18519248      10.39415585      25.96806692 
C      19.03993374      17.13555337      31.66586318 
C      20.73446951      29.57272295      27.41269507 
C      24.59972007      29.11349035      14.07823307 
C      25.72721424      16.21089307      10.81890368 
C      22.55505518       8.69585089      21.48099643 
C      21.41971693       8.82373603      25.64719917 
C      19.68764093      12.61221885      30.20360173 
C      19.13425634      21.01756211      32.82033201 
C      19.21878991      26.79846743      30.80293067 
C      22.05300345      32.02003635      23.96037893 
C      23.55400159      31.83466407      17.85468539 
C      25.98378357      26.62192973      11.26585456 
C      26.24756677      20.77232128       9.56251976 
C      25.66113182      12.27354458      12.33214043 
C      23.67356753       8.73193932      16.93952231 
Ag      19.05640229      20.16451548      19.99917444 
Au      16.21762341      20.17320395      19.11486931 
Ag      21.18958225      20.94946149      18.17546597 
Ag      20.90292993      18.12976182      19.04117900 
Ag      19.75802924      23.49732291      17.73206200 
Au      20.53228158      21.73175469      15.47278543 
Ag      20.21724255      18.92271462      16.29157125 
Ag      19.98921651      16.10811234      17.17795098 
Ag      19.05663706      16.08927033      19.96541159 
Ag      18.15077373      16.09916479      22.81358483 
Au      17.84884948      18.87481401      23.67727156 
Ag      17.60032884      21.69953276      24.56904517 
Ag      18.30736840      23.43885183      22.28712584 
Ag      19.06286818      25.17332655      20.02743713 
Ag      17.58619962      22.66949173      19.55341195 
Au      18.32019902      20.97745316      17.25679721 
Au      18.05994223      18.12002223      18.11533897 
Ag      17.14820169      18.11380575      20.93712941 
Ag      16.85727848      20.92044127      21.83160567 
Ag      20.01489598      13.99137085      21.90049124 
Ag      19.08193489      14.00088744      24.70422132 
Ag      18.76978364      16.81962620      25.57563861 
Au      18.54290729      19.70873377      26.49328995 
Ag      18.26996459      22.52603232      27.33508807 
Ag      18.97811744      24.28502922      25.04256472 
Ag      19.74784017      26.04414005      22.75575831 
Ag      15.52901378      22.47835432      26.44308676 
Au      16.17672236      24.23338316      24.16805389 
Au      16.89204692      25.92477649      21.90871687 
Au      17.67967393      27.64888043      19.59188043 
Au      18.33350496      26.05020580      17.25495032 
Ag      19.11364878      24.29569048      15.03066000 
Ag      19.88908061      22.54351532      12.76511917 
Ag      19.56532492      19.72653212      13.48013983 
Ag      19.32502777      16.93177704      14.41045185 
Au      19.07338837      14.12312552      15.32261131 
Ag      18.06704524      13.99238220      18.06398875 
Au      17.25759363      14.07744139      20.89931129 
Ag      16.38224882      14.05277016      23.75334477 
Ag      15.91215844      16.77454559      24.65373641 
Ag      15.72672129      19.63647880      25.48876645 
Ag      17.35770942      18.92850165      15.31898067 
Ag      17.18723758      16.13453347      16.24179899 
Ag      16.14585579      16.06091226      19.01612467 
Ag      15.35317840      16.05198262      21.84173290 
Ag      14.93298991      18.83589918      22.80293113 
Ag      14.79257280      21.66350325      23.66097535 
Ag      15.39275628      23.45845722      21.39579416 
Ag      16.22361164      25.16850163      19.15894326 
Ag      16.87342969      23.52982731      16.80124819 
Ag      17.72346523      21.78142082      14.57898059 
Ag      14.73208688      22.68906074      18.64566198 
Ag      15.50582260      20.95588337      16.35216484 
Ag      15.21620390      18.12947739      17.18834477 
Au      14.29262576      18.10691420      20.02321927 
Ag      13.99729881      20.91924536      20.92333693 
Ag      13.36047871      20.15789239      18.18498239 
Ag      13.37679365      15.25070157      19.68589806 
Ag      12.55364735      17.31447673      22.21519488 
Ag      12.27689315      19.96901115      23.17593647 
Au      12.57375074      23.20221660      22.08156965 
Ag      13.28839799      24.95161824      20.01822091 
Ag      14.30031448      24.84726366      16.72828220 
Ag      15.06310408      23.29374508      14.50040035 
Ag      15.33305860      20.04808670      13.59596754 
Ag      15.14443560      17.32143800      14.32811170 
Ag      14.23573869      15.36993318      16.97537779 
Ag      12.43415537      17.47265543      17.90992024 
Ag      11.65806417      19.32287916      20.30586423 
Ag      11.94446928      22.34975758      19.35183404 
Au      12.97784160      22.27769943      16.36248184 
Ag      13.22570134      19.30952066      15.46618288 
Ag      15.37145094      13.33700031      18.71951966 
Au      14.66173062      13.24384850      21.61179473 
Ag      13.60081514      15.09008419      23.82396494 
Ag      13.31253281      17.91633047      24.99589330 
Ag      13.20060930      20.83353343      25.89218352 
Au      13.40775458      23.73892455      24.95750113 
Ag      14.07782565      25.62965915      22.75585311 
Ag      14.95542451      27.45897614      20.53859853 
Ag      15.70507535      27.41939845      17.44178570 
Ag      16.53542651      25.75667576      15.06146069 
Ag      17.40107534      24.01783275      12.77610160 
Ag      17.48825719      21.09605950      11.84287621 
Ag      17.35386326      18.15479680      12.59590286 
Ag      17.20567172      15.29383107      13.45665382 
Ag      16.23022215      13.47634099      15.81869010 
Ag      16.84499039      11.71635417      25.60923477 
Ag      16.87798436      14.81052337      26.53731175 
Au      16.72658148      17.62364263      27.37134112 
Ag      16.40902340      20.39029310      28.25449144 
Au      15.36037511      23.16033106      29.36170875 
Au      16.85856248      25.06107998      26.84442251 
Au      17.64811392      26.84285381      24.67649097 
Au      18.31938330      28.45390692      22.31822661 
Ag      18.57881540      30.53834940      19.98947745 
Ag      19.71057242      28.55132624      17.70115418 
Ag      20.53748905      26.81531315      15.47281075 
Ag      21.24823919      25.11603118      13.19009511 
Ag      21.56595774      23.53078413      10.44556372 
Au      21.71543048      20.49591312      11.69870337 
Ag      21.49257607      17.70269420      12.56236690 
Ag      21.22732839      14.90203524      13.44125793 
Au      20.34677526      11.81290157      13.82587623 
Ag      19.93255036      11.96680974      17.14356727 
Au      19.12750414      11.95926137      19.94308701 
Ag      18.19750548      11.97183491      22.74602397 
Ag      11.39261351      14.44414540      17.59391155 
Ag       9.75530839      18.42217305      22.73896063 
Ag      10.37973165      24.83964773      20.74179762 
Ag      12.41430442      24.73399908      14.33654175 
Ag      13.10377036      18.34595867      12.39650627 
Ag      12.04092153      27.57115017      21.86789170 
Au      10.66897648      18.64206026      26.06991857 
Ag      12.82952478      11.96205734      19.27799242 
Ag      15.53226374      16.51285995      10.98555540 
Ag      14.94397987      26.15944643      12.64875852 
Ag      14.38437400      26.54906994      25.68437947 
Ag      17.78174460      28.53837677      15.29350119 
Ag      19.35749042      18.94916477      10.45841936 
Ag      16.97117334      11.02356886      17.58066557 
Au      13.88313018      15.60045568      26.99618652 
S      11.36233372      22.57295911      14.49183972 
S      11.46480995      18.11100956      14.14090170 
S      10.15992790      16.44598271      18.08502236 
S       9.27861129      19.83681880      20.85354872 
S       9.96929762      23.73568908      18.64431405 
S      13.05391640      27.00749947      13.88465529 
S      10.24804183      26.20747918      22.72164960 
S       9.69148006      16.98994115      24.69142931 
S      12.10238516      12.22166229      16.99506957 
S      14.29855050      18.46664932      10.30637623 
S      13.16665155      26.59713046      18.11099644 
S      11.13609893      22.14442993      23.81709049 
S      11.80246779      14.97783067      21.68719686 
S      14.27375684      14.93735901      14.50500112 
S      14.95577786      22.12756132      12.23885516 
S      16.77786073      25.80068954      11.15215061 
S      13.53947518      29.35059781      21.30037701 
S      11.51493309      20.18400918      27.62235104 
S      13.45422433      11.11889895      21.44213148 
S      16.81007954      14.49786618      11.12995885 
S      18.36903028      20.96386950       9.53231291 
S      16.05242351      29.70441604      16.52605704 
S      12.66509727      25.19645073      26.78240737 
S      13.04622169      13.71950476      25.83846291 
S      16.42396098      11.06658692      15.22359365 
S      20.47397000      16.79497376      10.48405688 
S      19.59198237      28.27476832      13.69940822 
S      15.80234349      28.41633996      25.09732647 
S      14.60849439      17.20827636      28.56590512 
S      17.54490813      10.10993636      19.75616032 
S      20.64691275      10.20726100      15.52375216 
S      20.09983329      13.21429408      11.95569561 
S      22.65662732      21.53958102       9.64557586 
S      20.40401509      25.57446096      10.89361482 
S      19.97918394      31.00190973      18.08489464 
S      17.04826554      30.50154569      21.86025184 
S      16.25993529      25.33122153      29.23076175 
S      14.40882307      21.03347022      29.63548646 
S      16.90875992      12.66472706      27.82178849 
S      16.41710387      10.46060260      23.60869562 
C       9.66637375      22.85058111      15.13249449 
C      10.07972625      19.23026762      13.69212631 
C       9.13128401      16.79921159      16.60674898 
C       8.11541855      18.92972953      19.76213443 
C       8.39736682      22.80925628      18.85226854 
C      11.89729849      27.62902733      12.58970339 
C       8.75776193      27.27539659      22.52348749 
C       7.93675911      16.93204488      25.24925787 
C      10.57163938      11.19928915      16.87833080 
C      13.14757780      17.83497972       9.01073466 
C      11.50418246      27.03198175      17.44885858 
C       9.35174984      22.39908809      23.45996828 
C       9.97354496      14.88204476      21.50884582 
C      12.61321447      14.48352144      13.85127492 
C      13.39223426      22.07797994      11.26746307 
C      16.11853230      24.81449921       9.74854783 
C      12.93245186      30.06344612      19.71900847 
C      10.36596863      21.61597147      27.56340533 
C      12.00317721      11.33787549      22.54188260 
C      15.62417169      13.12032795      11.39906408 
C      17.01537413      20.44324955       8.40468818 
C      14.73658985      30.15437960      15.32644935 
C      11.02375177      25.91890206      26.40000190 
C      11.23043287      13.73645388      26.10615020 
C      14.76224012      10.30734342      15.03918412 
C      21.80387593      17.01446582       9.22986855 
C      20.49308988      29.87299555      13.85140610 
C      16.23366283      29.16090692      26.72174972 
C      15.10383018      16.18451728      30.00927728 
C      18.59244764       8.65843881      19.33451078 
C      19.41636612       8.88366507      15.19722596 
C      21.30252532      12.60390767      10.71319637 
C      21.79353139      21.05955876       8.09698130 
C      21.40755737      26.93949159      10.18773843 
C      18.96202353      32.04354577      16.96106961 
C      17.56293174      31.77650446      23.06913872 
C      14.86032399      26.48412558      29.51766663 
C      14.67924280      20.59090023      31.39560671 
C      15.28622342      12.23416021      28.57389749 
C      17.12020443       8.78370252      23.85497492 
H      31.72340144      22.00375063      25.66080141 
H      31.79229331      23.48137763      26.66504280 
H      31.22729149      23.57228945      24.96098762 
H      31.52927861      19.30291006      26.36725012 
H      31.34904059      18.91339935      28.10274932 
H      30.46342192      20.30771748      27.39281627 
H      32.19963299      17.91631703      24.06309892 
H      32.57272555      16.18269931      24.29421494 
H      31.16850928      16.92411789      25.13531729 
H      33.75476960      18.99088441      20.59988204 
H      32.41014499      18.07358412      21.36340456 
H      32.90704901      19.65828442      22.02541601 
H      33.26589680      23.53632339      22.10524477 
H      32.44247972      22.18046509      21.26083407 
H      32.56125305      22.18872323      23.04539021 
H      29.86411665      27.88009675      27.86413484 
H      29.07961754      26.90806475      29.14319295 
H      28.48577064      28.55554093      28.78314068 
H      32.13318611      27.83791508      17.49456803 
H      33.02882038      26.40065608      18.07179595 
H      32.27158662      27.51432050      19.24730242 
H      33.02463740      16.42580466      14.76915333 
H      33.53379647      16.27605159      16.47960849 
H      33.42763643      17.89137801      15.71617346 
H      30.10410649      10.17769734      24.04941349 
H      30.91935278      11.49518859      24.94382899 
H      31.05954881      11.40241123      23.16440496 
H      28.54001850      18.80804518      32.11324298 
H      28.34244177      17.09756370      31.62604059 
H      27.25463392      17.80841095      32.85864030 
H      29.89351011      27.80967945      22.96008684 
H      30.07076804      26.13539730      23.57564361 
H      29.24843067      27.37923072      24.58440206 
H      31.91253257      21.93157014      16.23261382 
H      31.77450343      22.01456855      18.01780741 
H      31.60115494      23.51331740      17.03764960 
H      31.18243614      14.89125597      18.49671964 
H      30.84171502      13.64352170      19.74848191 
H      31.06398405      15.35735604      20.23031036 
H      28.74280888      13.61475959      26.41267678 
H      28.39855720      14.32102998      28.03180338 
H      29.09797629      15.34784940      26.74232030 
H      27.53653338      23.18201691      30.09131869 
H      28.31961353      22.03491671      28.95895460 
H      27.39508368      21.41099350      30.37130611 
H      23.88383968      24.38642271      31.81373262 
H      25.40961734      25.32732048      31.83924043 
H      25.26735427      23.84925166      30.82596087 
H      28.99624290      30.54399702      20.91933254 
H      28.19240834      29.26285542      21.89085091 
H      27.29821748      30.74477006      21.45326266 
H      31.43245145      21.07957570      12.72765547 
H      30.63334005      21.85759919      14.14027772 
H      30.00864019      22.14488511      12.49217945 
H      28.41954764      10.91252253      17.42509680 
H      29.54749819      10.42439627      18.72877890 
H      29.18538435      12.16064456      18.44476643 
H      24.65932851      12.48574228      29.34887923 
H      25.72993939      13.20958130      30.59559248 
H      25.98632685      13.58009241      28.84961806 
H      24.42147762      21.40744874      32.84715027 
H      24.58501363      19.79958599      32.08506196 
H      23.43274454      20.03892106      33.43918805 
H      27.16498378      30.53803720      24.74455918 
H      26.72533734      29.26948029      25.92886145 
H      26.04163599      30.92478129      26.08348611 
H      29.72717885      27.05715486      13.85634732 
H      30.48852339      25.44020125      13.93332560 
H      29.91519320      26.22266979      15.43374245 
H      29.95907734      13.64416512      13.67078706 
H      30.14552477      13.00897563      15.33419719 
H      30.16848829      14.77640734      15.05168046 
H      26.15973182       9.31824771      25.76396180 
H      26.45901247      10.56089230      27.01716538 
H      26.91875785      10.88595626      25.31895721 
H      18.32351012      16.31033184      31.57532668 
H      18.52167382      18.08650516      31.49986857 
H      19.48094183      17.12480784      32.66930954 
H      19.84023900      29.32470867      27.99749482 
H      20.43705359      30.01403344      26.45598910 
H      21.36175043      30.27352022      27.97538593 
H      25.49997010      29.55139700      13.63223995 
H      23.83596239      29.89223015      14.19144456 
H      24.21423010      28.31904147      13.42926724 
H      25.19873338      16.86733134      10.11699064 
H      25.06212325      15.40107290      11.13769146 
H      26.62189897      15.79912719      10.33800274 
H      22.14531834       8.40906612      20.50472423 
H      21.73865577       8.84314792      22.19585128 
H      23.23646157       7.91582381      21.83966970 
H      21.45707524       8.12825319      24.80039694 
H      21.08956812       8.28524375      26.54281912 
H      22.41424739       9.25109288      25.81326281 
H      20.06574232      11.67567352      30.62931065 
H      18.68089267      12.45888015      29.79894776 
H      19.66515499      13.38471077      30.98181592 
H      18.83593651      20.01034878      33.13401854 
H      18.83496500      21.74035653      33.58784603 
H      20.21982005      21.05126926      32.67470649 
H      19.53584373      27.78595718      30.44669540 
H      19.30552810      26.76342636      31.89505773 
H      18.17993877      26.61169850      30.50934986 
H      22.12330910      33.03988541      23.56384576 
H      23.05497242      31.61025804      24.12467714 
H      21.50024484      32.03465593      24.90702052 
H      24.01197257      31.61390864      16.88269959 
H      23.95510147      32.77864007      18.24108310 
H      22.46577232      31.90589042      17.74819500 
H      26.28377959      26.47209704      10.22261574 
H      26.80959660      26.35790222      11.93610564 
H      25.70780342      27.67221436      11.41662860 
H      26.89979598      21.40541202       8.95028067 
H      25.20580208      20.89436641       9.24467690 
H      26.55214977      19.72426829       9.45584711 
H      25.75807327      12.86956391      11.41706462 
H      25.65362620      11.20884600      12.07190803 
H      26.50248532      12.49107706      12.99809553 
H      24.34899493       8.15953984      16.29305572 
H      22.70165728       8.84777005      16.44709029 
H      23.55012506       8.20219417      17.89176105 
H       9.06949027      23.32552195      14.34537105 
H       9.68282311      23.47865283      16.03018025 
H       9.23383800      21.87329612      15.37907502 
H       9.57223129      18.83525664      12.80501604 
H      10.44033213      20.24649368      13.50066971 
H       9.37554053      19.24853542      14.53308485 
H       8.35141824      16.03408147      16.52330064 
H       9.74118127      16.82030406      15.69694066 
H       8.66180780      17.78012676      16.75080598 
H       7.99832197      19.51443289      18.84136269 
H       7.14524662      18.84885951      20.26482764 
H       8.49861952      17.93470611      19.51141488 
H       8.23987994      22.20806516      17.94813334 
H       7.57172548      23.52149657      18.95980761 
H       8.43904805      22.14504356      19.72234677 
H      12.31313561      28.55365359      12.17268110 
H      10.93243616      27.84504868      13.06283330 
H      11.75460390      26.89953831      11.78754392 
H       7.86878349      26.66499833      22.72064523 
H       8.69114476      27.69868817      21.51722648 
H       8.81081208      28.08715189      23.25824973 
H       7.38897364      16.27848928      24.55997897 
H       7.48159631      17.92638304      25.25218853 
H       7.90553391      16.50779554      26.25938437 
H      10.07496973      11.42912194      15.92852243 
H       9.88521468      11.39986381      17.70572351 
H      10.86040445      10.14189001      16.89126274 
H      13.73054906      17.61143953       8.10972249 
H      12.41678362      18.62035045       8.78549430 
H      12.62314449      16.93293964       9.33840369 
H      11.63711764      27.44864335      16.44372863 
H      11.05017781      27.77556849      18.11444842 
H      10.87332895      26.13689466      17.41102034 
H       9.14761064      23.47529992      23.51363074 
H       8.77619452      21.86478030      24.22579646 
H       9.09411516      22.00818203      22.47012741 
H       9.70832921      13.84931249      21.25260508 
H       9.63466468      15.55477415      20.71342048 
H       9.51552373      15.16041748      22.46486507 
H      12.70506040      14.28947887      12.77614742 
H      11.91108816      15.30789144      14.01906641 
H      12.27474519      13.58119457      14.37352215 
H      13.44789255      21.23198750      10.57252412 
H      13.29735636      23.01988003      10.71462581 
H      12.53880448      21.95808932      11.94422549 
H      15.46128107      25.44462857       9.13945529 
H      15.57692070      23.92919599      10.09980048 
H      16.97867051      24.49076097       9.14937298 
H      13.69947362      30.76196286      19.36250329 
H      11.99675716      30.60368510      19.89934621 
H      12.78226482      29.28828721      18.95980156 
H      10.82647630      22.40891700      28.16624153 
H       9.40350145      21.32823690      27.99969390 
H      10.23153620      21.97757022      26.53773012 
H      11.24707206      10.59014481      22.27700886 
H      11.59081201      12.34954530      22.45217905 
H      12.34409815      11.17395983      23.57168331 
H      15.06220666      12.93986248      10.47620539 
H      14.93775257      13.33652664      12.22507398 
H      16.21480020      12.23127359      11.65272218 
H      17.45180269      19.96969665       7.51813947 
H      16.46706286      21.34414202       8.10369916 
H      16.32459829      19.74955003       8.89680458 
H      15.13145050      30.89011106      14.61715967 
H      13.91112641      30.60241286      15.89288235 
H      14.36610848      29.27596884      14.78658635 
H      10.25855355      25.18310797      26.67544076 
H      10.92443592      26.16168189      25.33637593 
H      10.89605987      26.82378164      27.00558711 
H      10.80993492      12.93414430      25.48735552 
H      10.79073468      14.69466711      25.80778730 
H      11.01853786      13.53391185      27.16171219 
H      14.44612947      10.45406144      13.99918274 
H      14.02791911      10.77259982      15.70619060 
H      14.83107137       9.23417620      15.24920578 
H      21.35260652      17.01235856       8.23093312 
H      22.49584461      16.16823234       9.31754990 
H      22.35392428      17.94878016       9.38478052 
H      19.87771435      30.66812343      13.41513798 
H      21.42858629      29.78693359      13.28589170 
H      20.72155363      30.11332587      14.89570269 
H      17.02945730      29.89739737      26.55775448 
H      16.58336943      28.40231476      27.42953121 
H      15.34538424      29.66450182      27.12114682 
H      14.20031862      15.75978853      30.46170842 
H      15.59970299      16.84961834      30.72685886 
H      15.79069246      15.38426327      29.71291004 
H      17.93881893       7.86006689      18.96341520 
H      19.09670519       8.32421744      20.24892112 
H      19.34089953       8.90946594      18.57540312 
H      19.72099925       8.34860698      14.29075754 
H      18.41020596       9.29927040      15.07354569 
H      19.43358932       8.19474004      16.05018933 
H      21.34189042      13.35966767       9.91894763 
H      20.93726406      11.65721680      10.29965103 
H      22.29619381      12.46728318      11.15469679 
H      22.08965612      21.76539809       7.31221582 
H      20.70610893      21.07735101       8.23008802 
H      22.11702789      20.04944673       7.81966384 
H      21.23840547      26.97385546       9.10546990 
H      22.47446076      26.80259421      10.39655623 
H      21.05072199      27.86996107      10.64571700 
H      19.49741814      32.14391186      16.00952127 
H      18.84827211      33.03267907      17.41890560 
H      17.97814244      31.59550858      16.78313302 
H      17.19532550      32.74728404      22.71553585 
H      18.65345864      31.80673125      23.17696197 
H      17.09201752      31.53283008      24.02913714 
H      15.21195786      27.50055166      29.30503697 
H      14.57615495      26.40823767      30.57370476 
H      14.00705017      26.24049312      28.87585898 
H      14.41504266      19.53124477      31.49845651 
H      14.01202306      21.19496693      32.02061886 
H      15.72265082      20.75085584      31.68989964 
H      15.28861149      11.16333222      28.80710601 
H      14.45741848      12.46873184      27.89751182 
H      15.17326377      12.80676682      29.50204027 
H      17.19281827       8.31167655      22.86779462 
H      16.43551069       8.20616777      24.48662731 
H      18.11017746       8.83070452      24.32285511 
