646
Properties=species:S:1:pos:R:3 i=103 optimized=T E=-10428.3192543134 pbc="F F F" jobid=246_80-Ag-89_8-000009-PBE
Ag      21.84291562      20.16638228      20.89643232 
Ag      24.66173967      20.17376163      21.81525475 
Au      20.45756145      22.70645630      20.45205489 
Au      19.69371879      20.94691028      22.73781215 
Ag      19.98212601      18.12094319      21.86249932 
Ag      21.12207312      23.50229476      23.17658865 
Ag      20.34082503      21.75115828      25.43106754 
Ag      20.65114943      18.93044937      24.60326172 
Ag      20.91344823      16.10266178      23.73955311 
Ag      21.84647987      16.08977489      20.93900474 
Ag      22.71339551      16.10805501      18.09845063 
Ag      23.05361623      18.89871262      17.22595117 
Ag      23.29180023      21.72703849      16.34983327 
Ag      22.60588219      23.46675630      18.60369325 
Ag      21.83323675      25.21494251      20.89736154 
Ag      23.30197919      22.68311882      21.35077289 
Ag      22.54487927      20.97096597      23.63370250 
Ag      22.82690212      18.14939438      22.77304036 
Ag      23.72959623      18.13422111      19.98412284 
Ag      24.02762730      20.93378359      19.09613585 
Ag      20.88931694      13.99842091      19.01389765 
Ag      21.80415794      14.03403409      16.19881957 
Ag      22.10876106      16.84754215      15.31675708 
Ag      22.36779866      19.71162970      14.41897480 
Ag      22.65812575      22.53584631      13.57646867 
Ag      21.96086897      24.29525439      15.84097993 
Ag      21.17842331      26.05645799      18.14584076 
Ag      20.45042134      27.79158219      20.47519855 
Ag      25.37862823      22.47971319      14.52549442 
Ag      24.77454870      24.25647064      16.73734522 
Ag      23.97899336      25.95865366      19.03299626 
Ag      23.19738119      27.69556363      21.31519720 
Ag      22.54848999      26.06870501      23.64105734 
Ag      21.75597798      24.29060743      25.86842966 
Ag      20.92918011      22.55017292      28.11136949 
Ag      21.25969019      19.72916332      27.36119612 
Ag      21.56273414      16.93316168      26.46050144 
Ag      21.83120236      14.08261833      25.59091601 
Ag      22.82018583      14.01763276      22.83659188 
Ag      23.65192126      14.06830703      20.00163929 
Ag      24.52167986      14.07954055      17.13945372 
Ag      24.92395764      16.81376772      16.23244644 
Ag      25.14476509      19.64862097      15.40606429 
Ag      23.53643477      18.95455080      25.51670702 
Ag      23.69906677      16.14986796      24.63821292 
Ag      24.73674088      16.07273627      21.87048343 
Au      25.51529844      16.08316664      19.02931105 
Au      25.92674558      18.87334828      18.13253470 
Ag      26.09877285      21.66500943      17.23549655 
Ag      25.48782309      23.47412745      19.51016409 
Ag      24.63722861      25.18475934      21.75072010 
Ag      23.99206077      23.51559860      24.10610172 
Ag      23.16165728      21.78009389      26.31009056 
Ag      26.13503157      22.69188600      22.26248711 
Ag      25.37607879      20.97531721      24.55404365 
Ag      25.68378748      18.14818811      23.70038152 
Ag      26.59941252      18.13295624      20.88784105 
Ag      26.88135696      20.93776326      19.99296850 
Ag      27.52105272      20.18082568      22.70696973 
Ag      27.49912527      15.29621905      21.23872930 
Ag      28.35415690      17.37391409      18.68452582 
Ag      28.60485982      20.01926846      17.73045558 
Ag      28.28427536      23.20165641      18.82773410 
Ag      27.56626416      24.95092484      20.92025654 
Ag      26.56311631      24.84393675      24.18605498 
Ag      25.84388786      23.27936233      26.43942094 
Ag      25.54146163      20.10007136      27.34493286 
Ag      25.76755382      17.37970366      26.56593771 
Ag      26.67256536      15.41525418      23.92249861 
Ag      28.46113073      17.51922976      22.98861066 
Ag      29.24900012      19.40806332      20.59286298 
Ag      28.92262419      22.38843884      21.56133599 
Au      27.90946552      22.29930808      24.53561568 
Ag      27.64683328      19.36642905      25.43972022 
Ag      25.51654353      13.35411215      22.20308701 
Ag      26.30924063      13.34853644      19.30959997 
Ag      27.26375672      15.14352909      16.99772111 
Ag      27.53059267      17.98269624      15.92967433 
Ag      27.69605867      20.81673965      14.96058565 
Ag      27.58450522      23.74228518      15.98763043 
Ag      26.79395263      25.64730037      18.19661564 
Ag      25.94922038      27.42645814      20.44269846 
Ag      25.17403752      27.37274050      23.49326594 
Ag      24.32179233      25.71945884      25.86281676 
Ag      23.47733723      23.95696716      28.15201066 
Au      23.19175799      21.08551136      29.02411216 
Au      23.51338978      18.19545639      28.25820904 
Ag      23.69852348      15.34832123      27.42195548 
Ag      24.67134798      13.51436478      25.08686293 
Ag      24.12808497      11.74480606      15.28309068 
Ag      23.95308163      14.83754381      14.35927237 
Ag      24.18450466      17.62886838      13.52779926 
Ag      24.51178183      20.41174486      12.66868687 
Ag      25.25756252      23.35689703      11.62013627 
Ag      24.08133391      25.06908997      14.03611995 
Ag      23.30840771      26.76385028      16.29993982 
Ag      22.57677054      28.49388070      18.56718703 
Ag      22.27245427      30.56697183      20.97580879 
Ag      21.12577693      28.56953732      23.21220343 
Ag      20.35179769      26.82416696      25.44866997 
Ag      19.61481115      25.10507787      27.70956305 
Ag      19.24203224      23.48772103      30.41915914 
Ag      19.14348679      20.46360843      29.19221440 
Ag      19.38717508      17.68687852      28.30147910 
Ag      19.69251124      14.90701080      27.45138968 
Au      20.52998151      11.78847401      27.02440260 
Ag      20.95876040      11.98705004      23.72313776 
Ag      21.82138654      12.01722758      20.91258400 
Ag      22.74537480      12.00491268      18.13634247 
Ag      29.53887732      14.54257411      23.27580833 
Ag      31.14391867      18.48881409      18.15714209 
Ag      30.44342072      24.93632359      20.06936870 
Ag      28.48199824      24.77883936      26.55156434 
Ag      27.88494516      18.34549655      28.43085565 
Ag      28.81800788      27.62836675      18.97296556 
Ag      30.19278689      18.68969811      14.93659483 
Ag      28.04774745      11.96178126      21.71607290 
Ag      25.36882374      16.56004455      29.85413894 
Ag      25.90872006      26.13403528      28.28197765 
Ag      26.42237798      26.57130627      15.32688556 
Ag      23.11857884      28.51651668      25.54438958 
Ag      21.53015363      18.84325250      30.43958930 
Ag      23.86165192      11.06404715      23.29838497 
Ag      26.83203087      15.85519291      13.90222970 
S      29.58564836      22.64927540      26.33559597 
S      29.47484191      18.13583952      26.63601697 
S      30.75047157      16.54050167      22.69586825 
S      31.61193512      19.97945213      19.98695592 
S      30.88189791      23.84354378      22.15944755 
S      27.78055583      27.02484630      27.05011732 
S      30.53825863      26.22676939      18.03707995 
S      31.26538320      16.99458176      16.26896944 
S      28.86733757      12.33036750      23.95239436 
S      26.77348702      18.39687851      30.56083846 
S      27.73265563      26.61437292      22.83450143 
S      29.65177694      22.20676206      16.96848283 
S      28.97909749      15.00305022      19.18243494 
S      26.60138706      14.97994038      26.38939857 
S      26.05527487      22.13844238      28.69472250 
S      24.09841085      25.72184329      29.79178899 
S      27.29852316      29.35491573      19.62179013 
S      29.37797643      20.16741241      13.24329024 
S      27.31499506      11.10470553      19.60472225 
S      24.05833271      14.54623921      29.74973518 
S      22.57006681      20.85524591      31.38532466 
S      24.81421883      29.70517827      24.26838151 
S      28.04086646      25.26533947      14.07654410 
S      27.79712043      13.88789163      14.94018736 
S      24.46000784      11.10709281      25.65557115 
S      20.20621810      16.80632349      30.47692149 
S      21.35969556      28.27140389      27.19645085 
S      25.05289699      28.48678434      15.89258748 
S      26.18833549      17.32582244      12.08092825 
S      23.28008594      10.02754946      21.18248028 
S      20.26276525      10.17884854      25.32565739 
S      20.79260000      13.18710082      28.89533786 
S      18.19434584      21.48967630      31.25174921 
S      20.44322142      25.52590853      30.01822015 
S      20.88688012      31.03381890      22.88876516 
S      23.89428981      30.50113921      19.20880085 
S      24.45712503      25.62795782      11.63050959 
S      26.44046306      21.28765772      11.36336033 
S      24.01692711      12.69689284      13.07663346 
S      24.55194288      10.50973063      17.29632406 
C      31.25485054      22.95082496      25.64025833 
C      30.86216576      19.26064424      27.06680925 
C      31.82609147      16.90822242      24.13770792 
C      32.81068482      19.10184354      21.06588219 
C      32.47496843      22.95792623      21.93551355 
C      28.92684431      27.64160342      28.35681471 
C      32.06779385      27.25198186      18.15039411 
C      33.02122398      17.02090356      15.70446149 
C      30.41521468      11.33234305      24.04921856 
C      27.95594075      17.62105650      31.74418879 
C      29.37469277      27.07864065      23.52597396 
C      31.45276821      22.52959601      17.17448896 
C      30.79174626      14.73099163      19.34278240 
C      28.24212652      14.51196795      27.08202886 
C      27.71503731      22.06725236      29.48502466 
C      24.80643383      24.72181826      31.16088422 
C      27.94314218      30.07919366      21.18233893 
C      30.49816442      21.62431526      13.24786802 
C      28.76553908      11.19722471      18.47992478 
C      25.22755784      13.14869212      29.51842759 
C      24.02234259      20.31293800      32.36416125 
C      26.14812018      30.16392238      25.44618531 
C      29.67475549      26.07352505      14.30607773 
C      29.60547448      13.93694403      14.62105719 
C      26.12661856      10.34980252      25.80909688 
C      18.85872475      17.16973648      31.67637846 
C      20.46088265      29.87393375      27.08277851 
C      24.64770774      29.19711753      14.24301346 
C      25.66305285      16.14476490      10.76982546 
C      22.17654112       8.64069845      21.67809398 
C      21.51073054       8.87937270      25.67901493 
C      19.57846621      12.59359995      30.13656050 
C      19.09629656      21.07338287      32.79967301 
C      19.47508794      26.90466791      30.74511238 
C      21.92604961      32.07065015      23.99610633 
C      23.50340564      31.86198851      18.04173358 
C      25.94543273      26.65790837      11.30570674 
C      26.28392355      20.75397860       9.61479021 
C      25.64211197      12.31871400      12.30354522 
C      23.86993891       8.82182421      17.06382642 
Ag      19.02820857      20.17664419      20.00805172 
Ag      16.19507913      20.17175636      19.10258142 
Ag      21.18101422      20.96323111      18.17053123 
Ag      20.89154763      18.13167955      19.04460071 
Ag      19.77055998      23.49600781      17.73150612 
Ag      20.52711011      21.75967126      15.47429845 
Au      20.24351635      18.93687917      16.30097310 
Ag      19.95695556      16.11974951      17.19825164 
Ag      19.04347351      16.09352612      19.96980615 
Ag      18.16897410      16.09651621      22.81648168 
Ag      17.83677819      18.88766221      23.67660305 
Ag      17.58169543      21.73790759      24.54976453 
Ag      18.28320936      23.47219744      22.29795254 
Ag      19.08004324      25.18704850      20.03628221 
Ag      17.58408903      22.67332144      19.55384138 
Au      18.31411710      20.97299669      17.27159094 
Ag      18.04385276      18.16259708      18.12221814 
Ag      17.14968663      18.13340284      20.92116758 
Ag      16.83285005      20.92854624      21.81068864 
Ag      20.02469538      14.01738970      21.87917634 
Ag      19.06367508      14.02891417      24.74572765 
Ag      18.75444366      16.83765725      25.59717333 
Ag      18.48825011      19.70711747      26.48632606 
Ag      18.19155106      22.54302367      27.32671275 
Ag      18.93800429      24.31248142      25.06246519 
Ag      19.72658013      26.07158788      22.77732444 
Ag      15.48234900      22.48920731      26.35623447 
Au      16.11824178      24.27959291      24.16162707 
Ag      16.91273732      25.96452407      21.91445805 
Au      17.70823900      27.66159023      19.64697546 
Au      18.36242373      26.06054345      17.25873557 
Ag      19.12186842      24.31152529      15.04274329 
Ag      19.89237607      22.54902915      12.79505701 
Ag      19.55320769      19.74896000      13.51882678 
Ag      19.29114482      16.94689825      14.45126416 
Ag      19.05877923      14.13076847      15.34679061 
Ag      18.08316728      14.00363471      18.07893857 
Ag      17.23703459      14.06220868      20.88071654 
Ag      16.34457760      14.07339118      23.81368344 
Ag      15.96297150      16.82398566      24.66384879 
Au      15.72691807      19.65638234      25.46923542 
Ag      17.33770411      18.96240777      15.33139962 
Ag      17.15966392      16.15591641      16.24581549 
Ag      16.15749854      16.06333662      19.02798639 
Au      15.40839282      16.08315993      21.86068403 
Ag      14.91565304      18.86238679      22.77265374 
Ag      14.74229774      21.69283958      23.64997725 
Ag      15.38292944      23.48552431      21.39649126 
Au      16.22138960      25.17451453      19.17486770 
Ag      16.86436103      23.53135303      16.81039665 
Ag      17.71823494      21.80345033      14.59260501 
Ag      14.72536117      22.71547129      18.63710836 
Ag      15.47682846      20.98874305      16.35277201 
Au      15.20561953      18.14869133      17.18958974 
Ag      14.26920236      18.10919682      20.03151244 
Au      13.98835123      20.93664726      20.91195088 
Ag      13.36567649      20.17866973      18.17842272 
Ag      13.39153150      15.28888630      19.63826193 
Au      12.46678325      17.37963084      22.27027370 
Ag      12.21888763      19.98073068      23.19063511 
Au      12.55833791      23.28004095      22.06909045 
Ag      13.26050353      24.99838014      19.99211953 
Ag      14.29545337      24.88001692      16.72900470 
Ag      15.06475155      23.30748347      14.52028706 
Ag      15.33516229      20.07227239      13.57183000 
Ag      15.13828833      17.34520042      14.28899634 
Au      14.23644317      15.35992611      16.97645617 
Ag      12.44016353      17.49724943      17.84192865 
Ag      11.63314952      19.36699977      20.29704286 
Ag      11.94886960      22.33416434      19.38086049 
Ag      12.91869441      22.32689055      16.36590261 
Ag      13.22522418      19.33865420      15.45517078 
Ag      15.36687733      13.31275223      18.70808341 
Ag      14.58467462      13.36516937      21.60358262 
Ag      13.65219551      15.17737340      23.87723588 
Ag      13.34979896      17.96180125      25.02207995 
Ag      13.18239853      20.79440391      25.95207214 
Ag      13.29638124      23.78059961      24.93494675 
Ag      14.07841200      25.67151594      22.72598882 
Ag      14.95700783      27.44956162      20.47965454 
Ag      15.72366038      27.43125220      17.47727745 
Ag      16.54721641      25.76785591      15.07328734 
Ag      17.40640167      24.04141568      12.79799606 
Ag      17.52273123      21.09598845      11.84641663 
Ag      17.35195909      18.17436854      12.59911134 
Ag      17.21459924      15.30731049      13.46316894 
Ag      16.23182444      13.50416430      15.83013383 
Au      16.60134400      11.68713632      25.64982386 
Ag      16.84983712      14.86324630      26.58838345 
Ag      16.67062835      17.65643290      27.37519431 
Ag      16.31492338      20.44564230      28.22535687 
Ag      15.58905876      23.35653704      29.26067506 
Ag      16.75108896      25.07057979      26.84811624 
Ag      17.59798474      26.79443579      24.62033734 
Ag      18.28203029      28.53110187      22.36141818 
Ag      18.52120937      30.55206235      19.94527468 
Ag      19.71416379      28.55594536      17.70758982 
Ag      20.56113445      26.82290078      15.47085935 
Ag      21.24114968      25.10543429      13.18681465 
Ag      21.64160542      23.43452828      10.48560227 
Ag      21.68697146      20.48299324      11.70942159 
Ag      21.44927295      17.70009483      12.61394860 
Ag      21.13090988      14.90730882      13.45278195 
Ag      20.48797297      11.84447300      13.98260558 
Ag      19.94164203      11.98234997      17.16618547 
Ag      19.08360765      11.99055797      19.97922630 
Au      18.18959112      12.08579373      22.75393327 
Ag      11.42840828      14.42076026      17.56186506 
Ag       9.67344048      18.46427291      22.66118121 
Ag      10.35219872      24.80789518      20.66457070 
Ag      12.45801422      24.75626811      14.31040900 
Ag      13.07959499      18.39553864      12.38636202 
Ag      11.91787732      27.49296242      21.94222852 
Ag      10.63110685      18.75255346      25.89765293 
Au      12.92973464      11.72443621      19.13778633 
Ag      15.49154093      16.52880718      11.02100290 
Ag      14.96622516      26.22214635      12.65708077 
Ag      14.46740357      26.66179484      25.58155878 
Ag      17.82986298      28.51107586      15.28084280 
Ag      19.36424627      18.92276249      10.46191171 
Ag      17.07455464      11.02628683      17.58238850 
Au      13.88159464      15.80703491      27.10993670 
S      11.37578702      22.61052849      14.40991383 
S      11.44815400      18.17145000      14.13858372 
S      10.19038745      16.42733693      18.07688776 
S       9.24106591      19.91423884      20.78424512 
S      10.05875044      23.72707928      18.52494843 
S      13.05675593      27.04834316      13.87268260 
S      10.07424067      26.12517947      22.67010246 
S       9.49694646      17.05619583      24.61208692 
S      12.12767296      12.17471772      16.96145688 
S      14.28580859      18.49044768      10.30215426 
S      13.13385421      26.64174305      18.08056357 
S      11.22223173      22.19237963      23.86931603 
S      11.91472799      15.02188063      21.66953469 
S      14.19454143      14.98690966      14.51494559 
S      14.99952454      22.16929882      12.23838251 
S      16.82096752      25.85256522      11.19260922 
S      13.52638385      29.20323531      21.49222235 
S      11.42811810      20.22655234      27.61041861 
S      13.67264143      11.07091001      21.26627018 
S      16.70923844      14.47257360      11.17307913 
S      18.39193245      20.94147129       9.52848680 
S      16.11737186      29.68145425      16.53119308 
S      12.75965906      25.38965253      26.74258273 
S      13.01089105      13.95162546      25.93219699 
S      16.54407279      11.12984968      15.21072784 
S      20.58864057      16.82803762      10.44910806 
S      19.61773533      28.24100830      13.65952899 
S      15.90539653      28.54926967      25.09098500 
S      14.57075055      17.39505852      28.71501481 
S      17.64451979       9.97479085      19.69019562 
S      20.76543281      10.15508609      15.67240289 
S      20.03951625      13.17478892      12.03685151 
S      22.72089601      21.45063042       9.65207210 
S      20.42492243      25.46671223      10.85952401 
S      19.97904780      31.00260188      18.07846801 
S      16.93035908      30.53892645      21.74518319 
S      16.41160155      25.62038784      29.25283864 
S      14.40306821      21.29613842      29.58224780 
S      16.72920049      12.65297568      27.79070865 
S      16.42078712      10.55708672      23.59109888 
C       9.66024482      22.95447253      14.96727667 
C      10.06234591      19.29587810      13.71068284 
C       9.13583453      16.77954348      16.61568857 
C       8.10858397      18.99627245      19.66898104 
C       8.47904141      22.79778307      18.64498567 
C      11.90548115      27.64439462      12.56089152 
C       8.59058906      27.18735091      22.40643997 
C       7.74849469      17.16154496      25.18769639 
C      10.60730394      11.14291717      16.84127260 
C      13.13391472      17.86319721       9.00506671 
C      11.48967196      27.11142251      17.40001772 
C       9.42094099      22.43779736      23.58969786 
C      10.10305866      14.78697590      21.46296503 
C      12.49721469      14.58288342      13.93520899 
C      13.45478670      22.14012017      11.23606778 
C      16.17425081      24.88991811       9.76708070 
C      12.91930864      30.06985122      19.98815866 
C      10.33606991      21.70402339      27.56844553 
C      12.16992617      11.11368827      22.32304167 
C      15.47449871      13.14527062      11.46898095 
C      17.04165536      20.41611742       8.39867431 
C      14.79265372      30.13400595      15.34276198 
C      11.15583298      26.22364425      26.41212627 
C      11.19319844      14.00464294      26.18166941 
C      14.90677209      10.32524559      14.99119835 
C      21.92699901      17.14660337       9.22587572 
C      20.52628549      29.83761157      13.78102496 
C      16.32587605      29.19976151      26.76060551 
C      15.03023761      16.34572996      30.15424374 
C      18.76861356       8.60724926      19.18767855 
C      19.52614311       8.85998838      15.26112474 
C      21.21976700      12.66026287      10.72890424 
C      21.84626743      21.05038122       8.08465760 
C      21.38246702      26.83750944      10.10303326 
C      18.99673057      32.03984178      16.92033521 
C      17.33947881      31.92762528      22.87169996 
C      14.92853260      26.66301181      29.56718204 
C      14.61232336      20.82897463      31.34521483 
C      15.11099044      12.31705240      28.59043580 
C      17.14713998       8.89376888      23.84262558 
H      31.68878626      21.98037414      25.36998040 
H      31.87243258      23.42407783      26.41233709 
H      31.20269869      23.58748087      24.75039503 
H      31.56265619      19.26872199      26.22262400 
H      31.37362696      18.87620291      27.95624945 
H      30.50342052      20.27942475      27.24832292 
H      32.27772024      17.89524686      23.97953057 
H      32.61805626      16.15303018      24.19358059 
H      31.24680263      16.91860706      25.06726575 
H      33.77112706      19.02292535      20.54450043 
H      32.44250644      18.10548626      21.33339659 
H      32.94194501      19.69820431      21.97719151 
H      33.27736675      23.69090318      21.79693786 
H      32.43155933      22.27601205      21.07923549 
H      32.66764419      22.38022653      22.84810185 
H      29.88682376      27.88637016      27.88771209 
H      29.08479056      26.89763337      29.14267390 
H      28.49390856      28.54857314      28.79455640 
H      32.00923534      28.04525083      17.39612264 
H      32.93037111      26.61014923      17.93678469 
H      32.18389622      27.69961261      19.14147294 
H      33.06929501      16.57955661      14.70216754 
H      33.61551979      16.41419515      16.39756485 
H      33.42319827      18.03757215      15.67452905 
H      30.14061262      10.27177939      24.08812087 
H      30.94434221      11.60491323      24.96970200 
H      31.06705087      11.50876525      23.18896093 
H      28.74825321      18.34453281      31.96859183 
H      28.40088928      16.70893080      31.33650840 
H      27.41268344      17.38013322      32.66537428 
H      29.82836360      27.83109077      22.87030204 
H      30.01836778      26.19302304      23.57065452 
H      29.21946933      27.48991399      24.53003249 
H      31.98708820      22.05048721      16.34568972 
H      31.79864625      22.11228248      18.12669725 
H      31.60906188      23.61438484      17.15210140 
H      31.26163738      14.99005464      18.38694386 
H      30.96423901      13.67416385      19.57802164 
H      31.19180514      15.35870897      20.14674719 
H      28.56792254      13.58570121      26.59494239 
H      28.13105143      14.35818041      28.16181176 
H      28.96394395      15.31485039      26.89437707 
H      27.91135579      23.03290425      29.96626497 
H      28.49362571      21.86413467      28.74214363 
H      27.69420800      21.26876707      30.23652198 
H      23.96628157      24.35254762      31.76193561 
H      25.44960518      25.35896105      31.77772451 
H      25.37420921      23.86643792      30.77604097 
H      28.86104222      30.63913290      20.97305215 
H      28.13295925      29.30695279      21.93541296 
H      27.17242978      30.76176144      21.56164676 
H      31.47313695      21.33490317      12.84085547 
H      30.61568708      22.03673706      14.25596483 
H      30.03983887      22.38514487      12.60385438 
H      28.40395117      10.97752085      17.46774138 
H      29.50363878      10.44515862      18.77947349 
H      29.21684605      12.19548545      18.48833456 
H      24.63015519      12.25977812      29.28058035 
H      25.78266158      12.98243550      30.44825025 
H      25.92216352      13.33887073      28.69311358 
H      24.62321341      21.20020209      32.59682662 
H      24.63886315      19.59435055      31.81358009 
H      23.66081044      19.85956855      33.29457915 
H      26.97376359      30.59038201      24.86371699 
H      26.51248443      29.29296656      26.00228191 
H      25.76744038      30.91856405      26.14353555 
H      29.67945225      27.03056435      13.77243186 
H      30.43623925      25.41248368      13.87486271 
H      29.89702939      26.23629197      15.36676166 
H      29.78294873      13.81350116      13.54694383 
H      30.06042535      13.09986952      15.16423718 
H      30.05092388      14.87599191      14.96800270 
H      26.06248486       9.28540994      25.55694967 
H      26.44409782      10.45725982      26.85341709 
H      26.85801822      10.84266107      25.15909192 
H      18.12004749      16.36186459      31.61223002 
H      18.36894085      18.12579770      31.46004866 
H      19.28256691      17.19269592      32.68702288 
H      19.54520607      29.78844078      27.68001741 
H      20.19709890      30.11930938      26.04791959 
H      21.09371431      30.66520255      27.50064649 
H      25.55295827      29.64518171      13.81766475 
H      23.89141470      29.97741854      14.39013822 
H      24.25503481      28.43637617      13.55920191 
H      25.19123745      16.72302442       9.96641309 
H      24.94963078      15.40542732      11.15062010 
H      26.54975187      15.63458292      10.37649989 
H      21.75616582       8.20362904      20.76438309 
H      21.36027585       8.98241662      22.32406866 
H      22.77094631       7.88327696      22.20177900 
H      21.51467329       8.18486489      24.83046039 
H      21.20575408       8.34551742      26.58598386 
H      22.50867941       9.31261397      25.80938340 
H      19.94985143      11.65992249      30.57378915 
H      18.59092088      12.43526505      29.68993494 
H      19.52417648      13.36759310      30.91202811 
H      18.79257330      20.06807943      33.11426807 
H      18.80705472      21.79766916      33.56955183 
H      20.18069342      21.09772448      32.64958618 
H      19.86639652      27.83445542      30.31472468 
H      19.63222428      26.90760900      31.82977472 
H      18.40717294      26.80687790      30.52083938 
H      22.02881331      33.06265313      23.54197130 
H      22.91383419      31.62164253      24.14846332 
H      21.41142699      32.16434168      24.95964817 
H      24.05459569      31.66134028      17.11509141 
H      23.85135781      32.80538544      18.47782915 
H      22.42842666      31.91756911      17.83704973 
H      26.22671136      26.53508927      10.25373801 
H      26.77799768      26.36495756      11.95513726 
H      25.68381453      27.70622446      11.49162932 
H      26.97690014      21.34600257       9.00613715 
H      25.25930601      20.88123854       9.24833288 
H      26.57034166      19.69610573       9.57426718 
H      25.71720000      12.88700336      11.36895931 
H      25.67605108      11.24649885      12.08000757 
H      26.47001678      12.59128100      12.96729044 
H      24.56227723       8.24753563      16.43772848 
H      22.87929145       8.85147172      16.59651879 
H      23.80402455       8.36083213      18.05674716 
H       9.12433157      23.48265950      14.17080902 
H       9.65811662      23.55188050      15.88553189 
H       9.16808775      21.99290839      15.15817169 
H       9.54339200      18.90255914      12.82947409 
H      10.42486739      20.31099729      13.51542695 
H       9.36933540      19.31436434      14.56080091 
H       8.37705280      15.99423019      16.52592175 
H       9.73369106      16.83523009      15.69958999 
H       8.63985776      17.74356644      16.78332886 
H       7.99876677      19.57887956      18.74599003 
H       7.13084637      18.90004351      20.15412153 
H       8.50963766      18.00589423      19.42720588 
H       8.37789255      22.18386006      17.74164585 
H       7.64914752      23.51177008      18.69179546 
H       8.46918378      22.14795853      19.52685696 
H      12.31099978      28.57174509      12.13981591 
H      10.93291789      27.84973319      13.02309481 
H      11.78062496      26.90620097      11.76371351 
H       7.69598188      26.56673138      22.53382863 
H       8.58239327      27.63455024      21.40844526 
H       8.59206674      27.98119078      23.16243474 
H       7.12883483      16.54790799      24.52352551 
H       7.38006141      18.19124380      25.17860351 
H       7.69293071      16.76322309      26.20745565 
H      10.10624882      11.39694836      15.89958983 
H       9.92816543      11.32682315      17.67840164 
H      10.89997409      10.08678308      16.82659582 
H      13.71826438      17.62902161       8.10762413 
H      12.41153372      18.65426795       8.77265096 
H      12.59954244      16.96796359       9.33535102 
H      11.64284115      27.53276320      16.39980247 
H      11.03939875      27.85839783      18.06416899 
H      10.84473349      26.22733259      17.34627295 
H       9.21295634      23.51300276      23.63853300 
H       8.88187657      21.90721434      24.38386905 
H       9.13042006      22.03431906      22.61356997 
H       9.92558363      13.73761189      21.19895343 
H       9.72945371      15.43625691      20.66354059 
H       9.61670421      15.03004165      22.41485493 
H      12.52991801      14.47985352      12.84369340 
H      11.80201811      15.38410023      14.20776360 
H      12.19423960      13.63527642      14.39519517 
H      13.52373579      21.30758563      10.52647235 
H      13.37183461      23.09290433      10.70007457 
H      12.58868694      22.01018801      11.89460160 
H      15.53056888      25.53259756       9.15663377 
H      15.62084322      24.00435358      10.09829957 
H      17.04109749      24.56748071       9.17691857 
H      13.71072929      30.76203550      19.67502816 
H      12.01321799      30.63364392      20.23544823 
H      12.71673996      29.36760034      19.17216282 
H      10.79441533      22.46386641      28.21341672 
H       9.34866886      21.43485809      27.95918076 
H      10.24449423      22.10872918      26.55466995 
H      11.48527156      10.31666860      22.01358088 
H      11.67078056      12.08733016      22.27248396 
H      12.50671723      10.93317571      23.35160312 
H      14.89798805      12.97601387      10.55301567 
H      14.80432633      13.39772616      12.29813758 
H      16.03234646      12.23672311      11.72795149 
H      17.47645215      19.89905115       7.53600462 
H      16.52357334      21.32065393       8.05782401 
H      16.32522595      19.75975085       8.90523803 
H      15.18936647      30.85890677      14.62334473 
H      13.97893635      30.59642513      15.91443211 
H      14.40660085      29.25599861      14.81342077 
H      10.36631590      25.61420601      26.86821735 
H      10.96100939      26.31824726      25.33823287 
H      11.16416600      27.21522582      26.87806537 
H      10.76886384      13.17935361      25.59667029 
H      10.76339434      14.95195914      25.83753696 
H      10.97159215      13.85108952      27.24348019 
H      14.59563120      10.48147397      13.95125351 
H      14.15323475      10.75329522      15.66122381 
H      15.00859684       9.25117012      15.18312780 
H      21.48796068      17.18602830       8.22239184 
H      22.63616591      16.31190298       9.27884272 
H      22.45416355      18.08393532       9.43584099 
H      19.91386979      30.62748631      13.33114634 
H      21.46096370      29.73737650      13.21642669 
H      20.75689646      30.09624845      14.82031274 
H      17.09679695      29.96958671      26.63568168 
H      16.70447017      28.41155250      27.42079098 
H      15.42992265      29.65258884      27.20047821 
H      14.12438966      15.89348497      30.57309294 
H      15.48915210      17.00547271      30.90087227 
H      15.74377633      15.56450268      29.87170327 
H      18.18478964       7.83737737      18.67023560 
H      19.20548141       8.17964610      20.09814582 
H      19.57288365       8.96339869      18.53422783 
H      19.86392039       8.33482558      14.36059958 
H      18.53676789       9.29911302      15.09155105 
H      19.47761916       8.15273273      16.09737074 
H      21.22159287      13.44995250       9.96783008 
H      20.86281744      11.72387256      10.28505931 
H      22.22961271      12.52359643      11.13133535 
H      22.13385173      21.79167959       7.33061048 
H      20.75961028      21.05763312       8.22444741 
H      22.16923380      20.05525813       7.75685997 
H      21.22579197      26.81627769       9.01857348 
H      22.45095939      26.75226402      10.32974285 
H      20.98401280      27.77270316      10.51466304 
H      19.55050231      32.12144625      15.97760967 
H      18.88531878      33.03610808      17.36308128 
H      18.01143766      31.59980637      16.73157419 
H      16.98701837      32.86247191      22.42105335 
H      18.41747141      31.98640873      23.05921423 
H      16.80483922      31.75012970      23.81281395 
H      15.19962239      27.70921352      29.38322151 
H      14.64128935      26.54177433      30.61774388 
H      14.09597545      26.37872054      28.91419486 
H      14.28256654      19.78807755      31.44765883 
H      13.97283789      21.47488429      31.95754598 
H      15.65601322      20.92629293      31.66465435 
H      15.05196427      11.24703343      28.81898233 
H      14.27926681      12.61497374      27.94354792 
H      15.07736450      12.89232784      29.52340963 
H      17.27481983       8.45436884      22.84566973 
H      16.44042013       8.29223030      24.42597902 
H      18.11063026       8.95657017      24.36061689 
