646
Properties=species:S:1:pos:R:3 i=93 optimized=T E=-9778.4884562213 pbc="F F F" jobid=246_80-Ag-19_9-000006-PBE
Ag      21.89927614      20.18986177      20.90485430 
Au      24.76100089      20.18112952      21.81844864 
Au      20.43316136      22.68518396      20.41453825 
Au      19.73389229      20.94841880      22.71409985 
Au      20.00218136      18.15886670      21.85774403 
Au      21.16208196      23.48955092      23.13864237 
Au      20.41228960      21.76502212      25.41814072 
Au      20.72390567      18.95025502      24.61429087 
Au      20.96572342      16.18606536      23.74812530 
Au      21.83710131      16.11433471      20.92908610 
Ag      22.72917032      16.12179322      18.10323620 
Au      23.01655386      18.90149385      17.22044372 
Au      23.29291352      21.68050172      16.37228392 
Au      22.57474248      23.43841364      18.57065087 
Au      21.80410180      25.17939602      20.83348890 
Au      23.37873133      22.68849788      21.33085446 
Au      22.66011705      20.98773769      23.64478934 
Ag      22.91685209      18.16211671      22.79241169 
Au      23.78250231      18.13318261      19.98426347 
Au      24.10707890      20.92875160      19.07851460 
Au      20.85860310      14.00051438      19.01226338 
Au      21.78849376      14.07304744      16.16783856 
Au      22.11744126      16.87209662      15.24410534 
Au      22.35337210      19.69483273      14.36477486 
Au      22.67464479      22.53571089      13.59404359 
Au      21.92434250      24.32486161      15.82461696 
Au      21.07593166      26.08130775      18.07734476 
Au      20.37612599      27.77716636      20.42272241 
Au      25.38084658      22.44364775      14.48829944 
Au      24.77186573      24.25361631      16.72728728 
Au      23.98363792      25.94582014      18.93387653 
Au      23.10789536      27.73598478      21.21113608 
Au      22.51522340      26.07775965      23.62529678 
Au      21.78077548      24.35900381      25.82451392 
Au      20.96612515      22.61725810      28.14206416 
Au      21.37855606      19.74205250      27.38789218 
Ag      21.64588640      16.98680954      26.52478496 
Au      21.91270168      14.17389061      25.63648324 
Au      22.88464156      14.06199391      22.83614865 
Au      23.65764763      14.07286557      20.02575931 
Au      24.47255007      14.03584732      17.10847438 
Au      24.89582283      16.83776152      16.22316896 
Au      25.18114990      19.61042302      15.40208555 
Au      23.62192184      18.99633259      25.59571066 
Ag      23.78823808      16.19870085      24.70747850 
Au      24.83348311      16.05475426      21.90473663 
Au      25.58082268      16.07827769      19.05170962 
Au      26.05403171      18.85069283      18.15628436 
Ag      26.22916830      21.62413795      17.22013094 
Au      25.59468514      23.46454160      19.47247805 
Au      24.71817733      25.20814442      21.69460361 
Au      24.14337365      23.58188161      24.08154838 
Au      23.30543370      21.86746892      26.33697293 
Au      26.29571864      22.77619976      22.26204157 
Au      25.52297878      21.04247939      24.62116163 
Au      25.74795544      18.13555880      23.75023182 
Au      26.71688491      18.08535646      20.88506751 
Au      27.02443694      20.94021898      19.94624780 
Au      27.69007638      20.20416731      22.75432370 
Au      27.65360457      15.15090015      21.35145173 
Au      28.60200128      17.27593189      18.57642689 
Au      28.86515850      19.87685341      17.65002407 
Au      28.44106206      23.27830328      18.67898976 
Au      27.79543953      25.01291456      20.78331465 
Au      26.76065604      25.04932188      24.23623635 
Au      26.05001587      23.53852650      26.45417975 
Au      25.71801382      20.10322504      27.50998047 
Au      25.83131003      17.44033963      26.74176104 
Au      26.76929274      15.26527532      23.95682979 
Au      28.52774512      17.50018711      23.06592797 
Au      29.33064771      19.31464565      20.59226613 
Au      29.06340026      22.34746597      21.44462344 
Au      28.07939393      22.38825513      24.53351980 
Au      27.73982328      19.38492903      25.47635017 
Ag      25.56567207      13.22772645      22.18196865 
Au      26.27723641      13.31848738      19.24331675 
Au      27.15319669      15.12389928      16.96750624 
Au      27.56797664      17.91833310      15.88353701 
Au      27.69503704      20.82451798      14.84293103 
Au      27.53485556      23.71097276      15.88061992 
Au      26.86598838      25.69954939      18.07923673 
Au      25.87541345      27.46661619      20.39336703 
Au      25.10114716      27.44976144      23.29173591 
Au      24.40726922      25.88233362      25.80645048 
Au      23.44956067      24.08997972      28.11241963 
Au      23.33160558      21.26125521      29.05188702 
Au      23.59353262      18.24140365      28.43233362 
Ag      23.72454335      15.36029311      27.50828014 
Ag      24.67381051      13.52344825      25.10310226 
Au      24.30793056      11.53399011      15.35979702 
Au      24.06539690      14.83564278      14.31961249 
Au      24.22197622      17.57600082      13.40631014 
Au      24.50021191      20.40321692      12.60689104 
Ag      25.39137870      23.20117648      11.56003610 
Au      24.24384785      25.10886115      14.02337760 
Au      23.26902545      26.81206493      16.17304326 
Au      22.48776396      28.47905045      18.42999457 
Au      22.43386961      30.69022713      20.87335902 
Au      21.17905537      28.56573791      23.25323212 
Ag      20.36122025      26.89246247      25.47460898 
Ag      19.68131199      25.18122747      27.75110343 
Au      19.52299439      23.66300283      30.58878315 
Au      19.34178085      20.42677139      29.27134219 
Au      19.43604701      17.68206795      28.37205496 
Au      19.73538611      14.92253900      27.44649023 
Au      20.61896204      11.80585745      27.14996433 
Au      21.15937447      11.98362806      23.79272795 
Ag      21.83780247      11.95821967      20.96319391 
Au      22.66237352      12.00894858      18.13828567 
Au      29.64678938      14.18846941      23.59572297 
Au      31.57361698      18.24680178      18.10947416 
Ag      30.69035616      24.85101082      19.97121451 
Au      28.77643886      25.07173462      26.64538144 
Au      27.97337539      18.44238717      28.84719215 
Au      28.97593742      27.68736646      18.82827762 
Ag      30.21259852      18.84193341      15.00497851 
Au      28.04465262      11.66044245      21.69604220 
Au      25.28325860      16.52690297      30.22103637 
Au      25.95517560      26.47994128      28.29894265 
Au      26.61638875      26.82335927      15.18542108 
Au      23.18979715      28.69430593      25.76275661 
Au      21.72456713      18.90127333      30.73557682 
Au      24.04252758      10.83393608      23.37005514 
Au      27.16987327      15.73838271      13.75480543 
S      29.75493384      22.97726545      26.23846545 
S      29.42380634      18.43572416      27.00352819 
S      30.65939429      16.27907907      23.26900164 
S      31.73738822      19.44751180      20.11884725 
S      31.12523822      23.55919037      21.95967184 
S      27.93449592      27.19744233      27.21251641 
S      30.79944368      26.37373822      18.10025440 
S      31.60438842      17.12832898      16.04860013 
S      28.83027526      11.99805438      23.89955649 
S      26.67981122      18.34864307      30.81158513 
S      28.06934010      26.48600243      22.74256094 
S      29.92098312      22.05150739      17.14855174 
S      29.15670036      15.03607582      19.40531565 
S      26.63600101      15.12300249      26.41930237 
S      26.22440707      22.25851251      28.56269056 
S      24.06021938      25.93905851      29.58132689 
S      27.31181868      29.21568984      19.49656452 
S      29.50150717      20.39017657      13.27170292 
S      27.33277237      11.13705317      19.52013046 
S      23.98695776      14.60218618      29.88576401 
S      22.72150711      20.94606214      31.38761748 
S      24.85102718      29.62519676      24.34862183 
S      28.20985268      25.37464948      14.20754067 
S      28.02430411      13.93463777      15.03115451 
S      24.54520219      11.10372945      25.66649300 
S      20.55145413      16.88025187      30.42535701 
S      21.49313438      28.17106962      27.31555405 
S      25.04756629      28.47370740      15.80921655 
S      26.33883930      17.29170002      12.18994511 
S      23.50226809      10.10622968      21.19007549 
S      20.38924898      10.26290060      25.39245350 
S      20.69966208      13.26396441      28.99610638 
S      18.47225048      21.65439133      31.22462038 
S      20.43912283      25.76561877      30.09633589 
S      21.02804087      30.97841658      22.74074849 
S      23.79259799      30.50154432      18.95943372 
S      24.65955136      25.49800038      11.63905375 
S      26.33981731      21.01892595      11.11812037 
S      24.19440973      12.61547728      13.27327902 
S      24.33066608      10.34983115      17.39672823 
C      31.41939527      23.25161304      25.52729207 
C      30.76826792      19.63213710      27.34586410 
C      31.59670114      16.69586922      24.78446025 
C      32.74553255      18.48100817      21.30219896 
C      32.62859165      22.52844200      21.77881329 
C      28.99849370      27.79440862      28.58806813 
C      32.26330249      27.45613092      18.36728354 
C      33.28734297      17.40380402      15.35733109 
C      30.31797343      10.92246221      24.00562276 
C      27.79004110      17.63970174      32.09453295 
C      29.78799073      26.55569240      23.37199205 
C      31.61717154      22.15471713      17.83006891 
C      30.91964620      15.03239584      19.90066990 
C      28.31419131      14.84238330      27.10926468 
C      27.93203151      22.18389890      29.22254516 
C      24.72866906      25.04290874      31.03789682 
C      27.98059473      29.99100132      21.02033216 
C      30.57634578      21.87027100      13.42158172 
C      28.84273902      11.30187816      18.48897405 
C      25.20963447      13.24062097      29.70884354 
C      24.17855261      20.54690926      32.42035649 
C      26.28693828      30.02316681      25.41216958 
C      29.86825464      26.07557399      14.53617028 
C      29.85069831      14.03309720      14.96443945 
C      26.18007583      10.32362529      25.94888247 
C      19.21292062      16.96459969      31.67999837 
C      20.53033499      29.73237776      27.43775364 
C      24.60436935      29.25237829      14.20591124 
C      25.88534103      16.23734859      10.75601735 
C      22.48370218       8.60955913      21.51304502 
C      21.60025724       8.92013588      25.69574367 
C      19.37933648      12.68542877      30.12908159 
C      19.27316826      21.11487793      32.78409315 
C      19.27940238      26.97201309      30.84945191 
C      21.96556936      31.97443733      23.96283781 
C      23.28886858      31.85956706      17.83720461 
C      26.14570790      26.53587614      11.35012750 
C      25.88092816      20.57037200       9.40094266 
C      25.80628131      12.33832802      12.44309744 
C      23.48554108       8.76117400      17.04961287 
Au      19.00072865      20.17979627      19.98314882 
Au      16.09500078      20.16908244      19.06389290 
Ag      21.14125326      20.95175422      18.16491998 
Au      20.89984714      18.16767953      19.04899951 
Au      19.69169045      23.53234199      17.68828304 
Au      20.47582019      21.73542412      15.46659140 
Ag      20.18175524      18.95156593      16.27043363 
Au      19.97237227      16.16261753      17.17722032 
Ag      19.01229623      16.09927443      19.95037079 
Au      18.12963435      16.09021497      22.80407768 
Au      17.82995778      18.85782593      23.68299128 
Au      17.60372813      21.70200607      24.54617639 
Au      18.29193233      23.44691399      22.30354664 
Ag      19.01316864      25.19634189      20.00331329 
Au      17.52633181      22.67896204      19.51644247 
Au      18.25495848      20.97856786      17.21223689 
Au      17.99960524      18.17453516      18.10091054 
Au      17.05843392      18.11324216      20.91177227 
Au      16.77769234      20.92706921      21.79543669 
Au      20.04961488      14.00683937      21.88931857 
Au      19.13689918      14.03665519      24.71560097 
Au      18.77394890      16.84586627      25.60856451 
Ag      18.57464624      19.69416020      26.48913870 
Au      18.28603501      22.55625600      27.33452708 
Ag      18.95782266      24.31841859      25.06551809 
Ag      19.73228068      26.05128040      22.77501472 
Au      15.60289737      22.51899871      26.48225500 
Ag      16.16334017      24.29584454      24.19742542 
Au      16.93709820      25.93250901      21.94773058 
Au      17.68179821      27.72268550      19.60592218 
Ag      18.24089445      26.09799381      17.21943588 
Ag      19.08157586      24.32782206      14.99799772 
Au      19.94826857      22.56767920      12.73704277 
Ag      19.54942183      19.73319656      13.47565500 
Au      19.30210940      16.98070075      14.35664859 
Au      19.05865301      14.10224614      15.30080814 
Ag      18.05936213      14.00431261      18.06130282 
Au      17.21773924      14.05448218      20.89531336 
Ag      16.40414274      13.98940623      23.83291353 
Ag      15.94395042      16.80182354      24.68966633 
Au      15.75842025      19.59573291      25.53731209 
Au      17.25915338      18.97809025      15.29221825 
Au      17.16495857      16.15759729      16.22281521 
Au      16.09822974      16.07512766      19.01594442 
Ag      15.32256835      16.05550950      21.84371182 
Au      14.86527755      18.85245565      22.76871795 
Au      14.74423393      21.68871939      23.68117930 
Ag      15.34305443      23.45505518      21.40445239 
Au      16.18327804      25.17385919      19.16376816 
Au      16.79527686      23.58441283      16.73358298 
Ag      17.65182091      21.80029722      14.51360329 
Ag      14.65380623      22.72224538      18.60571739 
Au      15.40313852      20.98628877      16.27776172 
Au      15.09458554      18.08598617      17.12246991 
Ag      14.16656424      18.06810488      20.00031650 
Au      13.88886777      20.93269418      20.94044945 
Au      13.23045949      20.16735958      18.13521665 
Au      13.24579225      15.16982472      19.57056462 
Au      12.40179298      17.31664265      22.27514284 
Au      12.08485928      19.91330927      23.19594722 
Au      12.45096534      23.27609856      22.13825136 
Au      13.14285738      24.92179064      20.01845179 
Ag      14.19598452      24.89778199      16.62782897 
Au      14.99431139      23.38673203      14.42714111 
Au      15.22352678      20.06149380      13.39630665 
Au      14.98191474      17.41504685      14.15567264 
Au      14.10165437      15.26559254      16.95512425 
Au      12.35584694      17.48763042      17.77434147 
Au      11.54725808      19.36670822      20.27771507 
Au      11.86687856      22.30762735      19.40680277 
Au      12.87024406      22.26730323      16.26483750 
Ag      13.12231381      19.35679586      15.38582118 
Au      15.36999377      13.28822872      18.72011257 
Au      14.59024196      13.29808389      21.70705220 
Au      13.75372608      15.10133198      23.90481845 
Au      13.32173837      17.93035571      25.02220228 
Au      13.26920426      20.91398892      25.98354280 
Au      13.43781145      23.76410036      25.02803961 
Au      14.04260302      25.63622042      22.75046193 
Au      14.99531118      27.39744991      20.53532659 
Ag      15.58401001      27.39861937      17.55521015 
Ag      16.49055363      25.82139893      14.95157382 
Au      17.47937872      23.97342524      12.67696908 
Au      17.64944676      21.11859816      11.77818274 
Au      17.32391874      18.19636609      12.51166913 
Ag      17.17710643      15.32170901      13.47007339 
Ag      16.24192141      13.53124078      15.79718354 
Au      16.58370190      11.50632698      25.50109564 
Au      16.88691512      14.82319773      26.62757962 
Au      16.73796713      17.58069550      27.46458157 
Au      16.49991857      20.37365668      28.29045250 
Au      15.38751092      23.28596533      29.41245621 
Au      16.86462116      25.16262394      26.89986421 
Au      17.63434418      26.81825686      24.67855677 
Ag      18.30890125      28.53048480      22.40498532 
Au      18.31548602      30.68551975      19.87257112 
Ag      19.63284844      28.61165884      17.62679862 
Ag      20.49109963      26.88390495      15.42067852 
Au      21.32497526      25.12527114      13.21472925 
Au      21.35543716      23.72311618      10.29241920 
Au      21.70223466      20.49074020      11.61852785 
Au      21.49196231      17.72730133      12.47113096 
Ag      21.18592573      14.92699466      13.38993703 
Au      20.28187436      11.86223598      13.67971413 
Au      19.87855988      11.92880714      17.15297832 
Au      19.11497656      11.97136005      19.94021939 
Au      18.31142733      12.00560518      22.77084541 
Ag      11.26817645      14.34289218      17.39678558 
Au       9.42240177      18.27498001      22.84493754 
Ag      10.22841813      24.83145736      20.83610846 
Au      12.24662439      25.05449804      14.25501658 
Au      12.87094276      18.41689524      12.09914515 
Au      11.86301381      27.63112861      22.03650656 
Au      10.65871508      18.65491062      26.17376615 
Ag      12.80824804      11.94451270      19.24850895 
Au      15.59057365      16.51161512      10.75923008 
Au      14.97871119      26.42321344      12.50531458 
Ag      14.51237326      26.68009851      25.53104596 
Au      17.54666465      28.67060215      15.27563580 
Ag      19.32096236      18.91607365      10.38210926 
Au      16.85529064      10.87873245      17.54604048 
Au      13.82186107      15.73712003      27.11675374 
S      11.20422183      22.98403596      14.59788789 
S      11.34394783      18.41750509      13.87657850 
S      10.14135761      16.44304571      17.73608472 
S       9.14352252      19.50701953      20.86881064 
S       9.84624802      23.57771154      18.81236298 
S      13.12768885      27.18460545      13.76114791 
S      10.02875460      26.31390682      22.73160833 
S       9.48364209      17.07074239      24.86834037 
S      11.86848126      12.04870881      17.01693214 
S      14.20513094      18.33815805      10.15585407 
S      12.98380530      26.49631628      18.10833258 
S      11.05634312      22.07611430      23.77180127 
S      11.74107357      15.08002178      21.51252529 
S      14.19147897      15.10116240      14.49947618 
S      14.71080137      22.17772879      12.27348352 
S      16.79212233      25.79306530      11.16149714 
S      13.55806030      29.14966317      21.43579208 
S      11.62695536      20.21330748      27.64253956 
S      13.43326725      11.16874090      21.45520925 
S      16.89129194      14.59113096      11.10528016 
S      18.22249129      20.89708293       9.41231523 
S      15.90295948      29.67830951      16.64467381 
S      12.76690138      25.39855878      26.69023348 
S      12.95662128      13.90116604      25.89502794 
S      16.29660013      11.11364550      15.26020102 
S      20.64231997      16.85440079      10.36084950 
S      19.25092617      28.20259689      13.71343026 
S      15.94517717      28.59251890      25.02214462 
S      14.61089806      17.31632994      28.68099754 
S      17.50538999      10.13254277      19.69802631 
S      20.53266216      10.29947494      15.42020721 
S      20.16213712      13.27387887      11.81167338 
S      22.38997865      21.73635885       9.59479120 
S      20.48869095      25.79636009      10.99826959 
S      19.70438429      31.09225345      18.01391643 
S      16.93316373      30.54000729      21.76592062 
S      16.22997136      25.47632657      29.27710696 
S      14.59331740      21.09152298      29.70663414 
S      16.66241467      12.56285285      27.59365594 
S      16.59022693      10.38269777      23.43592697 
C       9.54142486      23.30221910      15.29229395 
C      10.03524393      19.63482690      13.46800558 
C       9.18862459      16.89392058      16.23894270 
C       8.04167147      18.56240487      19.75300698 
C       8.34187307      22.54570144      18.99028663 
C      11.99772308      27.89974459      12.49789213 
C       8.56846718      27.38739224      22.41133537 
C       7.76898424      17.15096493      25.52760464 
C      10.31345771      11.06416772      17.09963137 
C      13.11354167      17.62779528       8.85705988 
C      11.27765302      26.77182066      17.48564247 
C       9.31494842      22.19325839      23.21405260 
C       9.97616459      15.13907933      21.02780534 
C      12.49865375      14.81882804      13.84814593 
C      12.98604208      22.09948595      11.66216174 
C      16.03762382      24.83198722       9.79047446 
C      12.94360246      29.99173302      19.92623637 
C      10.45982680      21.63112048      27.64051961 
C      11.94984638      11.38287421      22.51550141 
C      15.67361017      13.22437377      11.26912281 
C      16.80763532      20.30350900       8.41245262 
C      14.54103804      30.18247617      15.52505368 
C      11.15585970      26.15858233      26.26433278 
C      11.13337997      13.96171388      26.04876365 
C      14.61564995      10.41288455      15.05500000 
C      21.99568505      17.20105578       9.16709394 
C      20.15264809      29.80372367      13.62325398 
C      16.37618659      29.28590812      26.66830056 
C      15.08106738      16.28502249      30.12645865 
C      18.55261409       8.67104428      19.32106477 
C      19.29436963       8.97902274      15.12963277 
C      21.47739190      12.68897123      10.67381458 
C      21.58345770      21.19430034       8.04012421 
C      21.60769144      27.06739869      10.29704282 
C      18.71071844      32.11260884      16.85704905 
C      17.41738100      31.95112915      22.83329097 
C      14.81321292      26.61887316      29.50452272 
C      14.93865132      20.67243242      31.45661558 
C      15.05466658      12.26238080      28.42072489 
C      17.42222698       8.78050591      23.75691566 
H      31.85475764      22.26192776      25.34025095 
H      32.02761243      23.78658754      26.26508474 
H      31.37313554      23.80671278      24.58494115 
H      31.42678802      19.63624933      26.46823529 
H      31.32741251      19.28763565      28.22298572 
H      30.38103712      20.64259604      27.51005525 
H      32.03495547      17.68991935      24.63034596 
H      32.39722101      15.95777021      24.90804390 
H      30.95295637      16.71862732      25.66912761 
H      33.75328035      18.37060530      20.88605689 
H      32.30901237      17.50005516      21.51228617 
H      32.79339925      19.06099349      22.23234900 
H      33.49438325      23.19679743      21.70665915 
H      32.58109037      21.87625595      20.90118563 
H      32.72102292      21.90829575      22.67916587 
H      29.98960484      28.01711308      28.17611558 
H      29.08498250      27.04667875      29.38103615 
H      28.54866186      28.71095744      28.98741041 
H      32.21159527      28.29435353      17.66296668 
H      33.16085222      26.86049995      18.16249703 
H      32.30262685      27.83759157      19.39131797 
H      33.28078201      17.04916412      14.31971791 
H      34.00847180      16.81975275      15.94037872 
H      33.56507208      18.46119859      15.38011185 
H      29.98172904       9.87922905      23.98540722 
H      30.81722700      11.13292957      24.95850793 
H      31.00605173      11.10883621      23.17664762 
H      28.55736363      18.38645661      32.32927170 
H      28.26276322      16.71649217      31.74857236 
H      27.18550845      17.43663220      32.98628760 
H      30.40354451      27.07213674      22.62496399 
H      30.18744114      25.55356404      23.55013062 
H      29.77134947      27.12408869      24.30986778 
H      32.23499145      21.40019442      17.32715434 
H      31.62215237      21.96969676      18.90759597 
H      31.99732330      23.16202672      17.61807501 
H      31.52069080      15.11917958      18.98735194 
H      31.12751009      14.08363544      20.41037786 
H      31.14138283      15.86535320      20.57280117 
H      28.63394684      13.83573126      26.81678335 
H      28.24729946      14.92689703      28.20058777 
H      29.01378255      15.58896473      26.72097670 
H      28.22014676      23.19710967      29.52858510 
H      28.63301101      21.81622804      28.46844800 
H      27.92326553      21.50976382      30.08740954 
H      23.86516550      24.64076318      31.58249661 
H      25.27093939      25.75488125      31.67015071 
H      25.38576635      24.22188391      30.73158074 
H      28.82564957      30.63224781      20.74581033 
H      28.29205479      29.23132558      21.74549143 
H      27.17378381      30.59860112      21.44879460 
H      31.54448321      21.64021682      12.96168026 
H      30.71412183      22.15725182      14.47017936 
H      30.09425955      22.69328315      12.87981231 
H      28.52082037      11.21678747      17.44349046 
H      29.52911294      10.48451937      18.73640193 
H      29.32360729      12.27395565      18.64541539 
H      24.64632945      12.35365548      29.39236477 
H      25.68669217      13.04955203      30.67621822 
H      25.96651060      13.47255092      28.95228084 
H      24.71283239      21.48751469      32.60189925 
H      24.84579644      19.83562076      31.92309832 
H      23.82534613      20.13405448      33.37226647 
H      27.10672512      30.32970981      24.75115626 
H      26.60044660      29.16087361      26.00866616 
H      26.01046839      30.85676923      26.06793362 
H      29.97876153      26.99256625      13.94599950 
H      30.60444961      25.33302437      14.20481389 
H      30.01663746      26.28886826      15.60001105 
H      30.17385556      13.76210207      13.95271480 
H      30.24160876      13.30350123      15.68406754 
H      30.21644388      15.03203358      15.22235896 
H      26.09887342       9.24464686      25.77691829 
H      26.44489476      10.50666365      26.99768347 
H      26.94987339      10.75229967      25.29904194 
H      18.52747120      16.13029091      31.48622089 
H      18.66544478      17.91019871      31.61235424 
H      19.65840545      16.85466134      32.67546410 
H      19.64175581      29.52023498      28.04524504 
H      20.21697069      30.08934602      26.45132723 
H      21.14060620      30.49402565      27.93598638 
H      25.46560714      29.82742825      13.84626406 
H      23.76042154      29.92825657      14.39126581 
H      24.31541104      28.49877157      13.46591961 
H      25.36135335      16.87572240      10.03398470 
H      25.23064395      15.41378464      11.05835395 
H      26.80420448      15.84602953      10.30435206 
H      22.06722155       8.28533930      20.55118819 
H      21.66485127       8.82581706      22.20696873 
H      23.12257944       7.81787735      21.92037042 
H      21.63400186       8.28837118      24.80021168 
H      21.23903810       8.33248120      26.54776611 
H      22.59647561       9.32416051      25.90311870 
H      19.71832313      11.75915550      30.60770523 
H      18.44109179      12.50976169      29.59129209 
H      19.24248595      13.46221061      30.89127950 
H      18.93326553      20.09659689      33.00675761 
H      18.94404201      21.79427885      33.57913774 
H      20.36398309      21.13080906      32.69863000 
H      19.56484460      27.96419748      30.47833963 
H      19.39112747      26.94617215      31.93927789 
H      18.24166716      26.75293629      30.57460517 
H      22.01225052      33.00404438      23.58920669 
H      22.97408502      31.57631495      24.11097884 
H      21.41492568      31.95095239      24.91060910 
H      23.74588495      31.65539356      16.86128414 
H      23.68392081      32.80048577      18.23781321 
H      22.19837587      31.91477861      17.74514975 
H      26.35442701      26.51537285      10.27372368 
H      27.01032166      26.16426864      11.90842137 
H      25.92588839      27.56377291      11.66124155 
H      26.58076663      21.07320219       8.72245330 
H      24.85502578      20.87478112       9.16595141 
H      25.98683955      19.48429536       9.29181242 
H      25.84174377      12.97415804      11.55072526 
H      25.84862259      11.28405155      12.14528011 
H      26.64408629      12.58066655      13.10385491 
H      24.16295434       8.13010899      16.46239260 
H      22.54987898       8.92151060      16.50252329 
H      23.28545283       8.28316396      18.01634532 
H       8.96474092      23.87828427      14.56020193 
H       9.59785224      23.82986647      16.25024050 
H       9.06778492      22.32437065      15.44549464 
H       9.52844705      19.32494008      12.54767179 
H      10.44006462      20.64602717      13.35660352 
H       9.31843806      19.62374910      14.29894812 
H       8.33769839      16.20719671      16.16015247 
H       9.80122612      16.84287086      15.33354991 
H       8.81984234      17.91919890      16.36632298 
H       7.89648110      19.17611294      18.85496978 
H       7.07930585      18.41528987      20.25548524 
H       8.47949657      17.60203963      19.46229478 
H       8.26884376      21.89815567      18.10764083 
H       7.46954868      23.20827369      19.02965581 
H       8.38166817      21.92222592      19.88930001 
H      12.45932205      28.81797881      12.11636462 
H      11.04862935      28.13862556      12.99149449 
H      11.82405602      27.20020536      11.67576396 
H       7.66859418      26.78507635      22.58366436 
H       8.56276570      27.76889513      21.38664286 
H       8.58854786      28.22552404      23.11733780 
H       7.12951060      16.53919994      24.88083102 
H       7.39756155      18.17900734      25.55247672 
H       7.77880642      16.73343582      26.54116959 
H       9.74724432      11.22869502      16.17549792 
H       9.69811410      11.34823620      17.95786508 
H      10.57971821      10.00361127      17.17847214 
H      13.72859023      17.42979436       7.97138751 
H      12.34660102      18.37281260       8.61561311 
H      12.63879169      16.70231014       9.19419722 
H      11.35019851      27.31406538      16.53578958 
H      10.73377742      27.37060097      18.22608365 
H      10.76529296      25.81657381      17.33290458 
H       8.97313893      23.21510339      23.42068547 
H       8.72321331      21.46935333      23.78790857 
H       9.22237063      21.97287047      22.14662771 
H       9.73032358      14.20011657      20.51642537 
H       9.77558280      15.98387935      20.36380059 
H       9.38673584      15.23803389      21.94762885 
H      12.54948427      14.84701346      12.75310622 
H      11.81736429      15.59853877      14.20410895 
H      12.16600000      13.83322789      14.19522733 
H      12.97751795      21.43372572      10.79064094 
H      12.68115379      23.11297905      11.37391835 
H      12.30766606      21.71648119      12.42911477 
H      15.47999605      25.51747651       9.14289978 
H      15.38290050      24.04185594      10.17438490 
H      16.86561651      24.37688831       9.23246493 
H      13.77373652      30.59978414      19.54513503 
H      12.10193930      30.63713238      20.20183263 
H      12.63930694      29.26585580      19.16483593 
H      10.95897001      22.45416973      28.16714412 
H       9.55057991      21.33817764      28.17724266 
H      10.22071154      21.94440104      26.61864812 
H      11.23153138      10.59245205      22.26877858 
H      11.49467059      12.36846852      22.36753300 
H      12.26728349      11.28276842      23.56078931 
H      15.19881906      13.04123986      10.29913082 
H      14.91572084      13.44771808      12.02745578 
H      16.24117124      12.33716675      11.57725187 
H      17.19808673      19.91234653       7.46547191 
H      16.14605471      21.15483393       8.21277180 
H      16.24302303      19.52371479       8.93260252 
H      14.90047073      30.96735197      14.85049621 
H      13.73965995      30.58330341      16.15804279 
H      14.15891776      29.33379380      14.94824849 
H      10.36385232      25.43105420      26.47714967 
H      11.10438085      26.44905112      25.21060704 
H      11.02309469      27.04189464      26.90050274 
H      10.72623206      13.19964148      25.37294886 
H      10.73662548      14.94418186      25.77378104 
H      10.86223222      13.71966355      27.08276661 
H      14.31363897      10.60761071      14.01848731 
H      13.89248013      10.87445775      15.73636597 
H      14.65599515       9.33137021      15.22537721 
H      21.57697158      17.16601295       8.15418603 
H      22.75951360      16.42162860       9.27418224 
H      22.44802331      18.18165262       9.34973672 
H      19.52377160      30.54283475      13.11443962 
H      21.06319205      29.63004647      13.03629238 
H      20.42719112      30.16605903      14.61975584 
H      17.18982840      30.00902050      26.53537548 
H      16.69839616      28.50027249      27.36017205 
H      15.49472368      29.79882689      27.07112815 
H      14.16687020      15.91074548      30.60163683 
H      15.62579940      16.92949545      30.82739696 
H      15.72079603      15.44903279      29.82565649 
H      17.90920151       7.86713119      18.94496724 
H      19.02970696       8.35527090      20.25709092 
H      19.32294347       8.91654408      18.58268719 
H      19.61845792       8.40738440      14.25210690 
H      18.29584889       9.39711290      14.96599616 
H      19.28416235       8.32601263      16.01032501 
H      21.61105566      13.47279500       9.91800167 
H      21.14389138      11.76467660      10.18867133 
H      22.41933823      12.51539091      11.20512263 
H      21.85576213      21.90989002       7.25561871 
H      20.49534874      21.14647091       8.15281119 
H      21.97812818      20.20332863       7.78638762 
H      21.43358395      27.12227995       9.21614236 
H      22.65720708      26.82815910      10.50256112 
H      21.33765863      28.02453064      10.75999366 
H      19.26338222      32.18561538      15.91270903 
H      18.59540873      33.11254778      17.29034404 
H      17.72874502      31.66287990      16.67648821 
H      17.05086681      32.88200136      22.38613243 
H      18.50423630      31.99881643      22.96100820 
H      16.93143586      31.79379009      23.80421968 
H      15.16026495      27.63408842      29.27863308 
H      14.50260535      26.56235205      30.55436071 
H      13.97932489      26.35448804      28.84618622 
H      14.76734566      19.59509016      31.57130623 
H      14.23583211      21.22452344      32.09149585 
H      15.97009767      20.92469222      31.72677157 
H      15.02109849      11.20545579      28.70987157 
H      14.21528369      12.50518223      27.76166375 
H      15.01537947      12.89147763      29.31782159 
H      17.64794453       8.33447376      22.78059611 
H      16.72394766       8.13465346      24.30197733 
H      18.34255995       8.91762132      24.33495434 
