646
Properties=species:S:1:pos:R:3 i=107 optimized=T E=-9873.0424845597 pbc="F F F" jobid=246_80-Ag-30_1-000008-PBE
Au      21.87345741      20.18110253      20.90356040 
Au      24.76560466      20.19925240      21.85201497 
Au      20.42741907      22.68260114      20.42549754 
Au      19.66779114      20.97060849      22.72300428 
Au      19.96641274      18.16276290      21.83864148 
Au      21.10429923      23.52785374      23.13499790 
Au      20.34080937      21.78321262      25.43804554 
Au      20.65340787      18.97591789      24.61474630 
Au      20.92662308      16.18486120      23.69840020 
Ag      21.88396205      16.10115760      20.93461584 
Au      22.70266145      16.04809985      18.10751211 
Au      23.04924272      18.88927561      17.20473374 
Au      23.26027539      21.69495051      16.31811188 
Au      22.62037326      23.48034760      18.60223397 
Ag      21.84965705      25.19006194      20.84418127 
Au      23.37958919      22.71883947      21.34431718 
Au      22.61680858      21.00613626      23.64288584 
Au      22.89991335      18.18301066      22.82147523 
Au      23.78941594      18.12291471      19.98891183 
Au      24.07652434      20.92632544      19.09370053 
Au      20.85501962      13.98040670      18.98698346 
Ag      21.78993404      13.99297595      16.17241240 
Au      22.15655558      16.82315448      15.27372462 
Au      22.38957852      19.67256416      14.38614891 
Ag      22.69468824      22.56198024      13.54375938 
Au      21.97003810      24.31442364      15.83917092 
Ag      21.11835451      26.06543676      18.12899785 
Au      20.44578628      27.75867009      20.41391610 
Au      25.39582276      22.44538978      14.47267678 
Au      24.79899612      24.28960407      16.73515735 
Ag      23.99036112      25.98899243      18.94522206 
Au      23.16437725      27.72763078      21.18328397 
Au      22.51902892      26.08645704      23.57481518 
Au      21.80646205      24.35260779      25.82758186 
Au      21.04942909      22.56562664      28.15283909 
Au      21.41094382      19.72888249      27.45733658 
Au      21.59299946      17.01130141      26.52669070 
Au      21.79455797      14.14049541      25.57050361 
Au      22.79823054      14.02518597      22.80443909 
Ag      23.65006101      13.99743479      20.05105377 
Ag      24.47833049      13.97842099      17.18728679 
Au      24.91907860      16.79437494      16.24083731 
Ag      25.17700836      19.58976238      15.38290937 
Ag      23.61483947      18.96928333      25.60422232 
Au      23.79988680      16.19248622      24.69008348 
Au      24.82669886      16.08513894      21.93332119 
Au      25.53813335      16.02018487      19.10540152 
Au      26.01825100      18.82009702      18.09851349 
Au      26.15278630      21.62601094      17.22636400 
Au      25.58441169      23.53975362      19.46938991 
Ag      24.71538361      25.21977023      21.69616561 
Au      24.09633225      23.57230537      24.06581443 
Au      23.22613675      21.82234875      26.31667058 
Ag      26.26730569      22.77318456      22.24070327 
Ag      25.50119977      21.04334304      24.62076118 
Au      25.78365684      18.14839329      23.80390513 
Au      26.69470250      18.07840935      20.89658552 
Au      26.95310607      20.96138849      19.97450239 
Au      27.60566025      20.22724594      22.77814029 
Au      27.71939580      15.16348223      21.42110718 
Au      28.40898425      17.23741147      18.61327872 
Ag      28.67943336      19.91397149      17.70401968 
Au      28.46719030      23.27522276      18.78887180 
Au      27.78984142      24.97884413      20.85813416 
Au      26.66726873      25.00999493      24.17926857 
Au      25.95581454      23.47485041      26.35258111 
Au      25.63784229      19.98325414      27.36889660 
Ag      25.91490279      17.30562208      26.66204326 
Au      26.87434840      15.27738379      24.05739451 
Au      28.52337792      17.53336193      23.08719658 
Au      29.26811486      19.31813750      20.58873885 
Ag      29.06487187      22.28275491      21.48360468 
Ag      28.06844640      22.41779230      24.49039093 
Ag      27.80529034      19.34368458      25.49436475 
Au      25.53554590      13.33190111      22.26801252 
Au      26.31460314      13.32919063      19.33044305 
Au      27.12929808      15.05843594      17.02899104 
Ag      27.58392159      17.82828892      15.86761806 
Ag      27.72695040      20.77816639      15.00004359 
Au      27.54590704      23.67078386      15.92720524 
Ag      26.90461928      25.70698224      18.12230819 
Au      25.89788276      27.46449220      20.42860617 
Au      25.08151059      27.47901827      23.30824479 
Au      24.30886555      25.91786407      25.80737067 
Ag      23.47912462      24.14334108      28.09142369 
Ag      23.44323585      21.09498712      29.05154818 
Ag      23.60905309      18.10956750      28.35651519 
Au      23.70854797      15.29020428      27.39322011 
Au      24.57966529      13.55130710      25.12937077 
Ag      24.03161897      11.60135590      15.37933521 
Ag      24.10557554      14.77050944      14.38717395 
Ag      24.27590833      17.55810909      13.45150693 
Au      24.48316785      20.37010335      12.66414203 
Au      25.58707649      23.20639352      11.52593336 
Au      24.16403058      25.11106163      14.05080494 
Au      23.27999546      26.83974415      16.19845178 
Au      22.49160497      28.51755699      18.46955662 
Au      22.58564906      30.74021590      20.84843417 
Au      21.24072551      28.61813834      23.22476287 
Ag      20.34900189      26.94101708      25.43955707 
Au      19.66684732      25.11842262      27.64352357 
Au      19.49325941      23.67362708      30.54302334 
Au      19.27382111      20.51133566      29.24453239 
Ag      19.41541590      17.68368128      28.41352295 
Au      19.69898399      14.89663061      27.44260740 
Ag      20.48211435      11.87968491      27.05669815 
Ag      21.08661374      11.90981371      23.81359632 
Au      21.76358151      11.91837596      20.97019412 
Au      22.60516664      11.98915291      18.13319647 
Au      29.91748934      14.35260516      23.50026516 
Ag      31.18528975      18.30358351      18.13504056 
Au      30.83149701      24.83423671      20.16420266 
Au      28.68476634      24.92129719      26.69957856 
Ag      27.82262142      18.50774935      28.72221870 
Au      29.01105440      27.63083444      18.87995950 
Au      30.25465259      18.51127332      14.80294188 
Ag      28.11300299      12.05408095      21.67597281 
Au      25.36876373      16.56888020      30.14202996 
Ag      25.86348547      26.14067804      28.29896559 
Au      26.69472931      26.80642059      15.28864643 
Au      23.18860749      28.78921163      25.76112806 
Ag      21.57511759      19.00649412      30.54827776 
Au      24.07492899      10.79936727      23.32652193 
Au      27.05915191      15.60093483      13.69965716 
S      29.70640591      22.83948147      26.33946519 
S      29.54289861      18.43906505      27.05533353 
S      30.76296513      16.51761328      23.16370873 
S      31.62068982      19.71769013      20.04008552 
S      31.12590498      23.57384580      22.11923023 
S      27.85594347      27.05385705      27.24395504 
S      30.80356059      26.22514798      18.25436727 
S      31.36702880      16.92573031      16.15852630 
S      29.27158256      12.11968464      23.82267273 
S      26.58317070      18.47858534      30.80097787 
S      28.02121981      26.50585632      22.79353789 
S      29.80520667      22.09750541      17.09019090 
S      29.22682623      15.05515713      19.44598986 
S      26.98343128      15.02899329      26.48701206 
S      26.03306175      22.18796662      28.46257400 
S      24.12006876      25.69900182      29.90878140 
S      27.34210200      29.18165559      19.43767057 
S      29.32675807      20.01463655      13.25718775 
S      27.39349527      11.16284309      19.52917163 
S      24.14440057      14.61314554      29.69106411 
S      22.67450546      21.01147569      31.38881639 
S      24.94009906      29.65344515      24.41613496 
S      28.25553892      25.34168222      14.28876130 
S      27.87171936      13.84614866      15.05889492 
S      24.70406568      11.16337788      25.57471144 
S      20.28669262      16.94961622      30.61469248 
S      21.38074401      28.36704010      27.21525256 
S      25.16155599      28.42877859      16.03350496 
S      26.30719714      17.11159785      12.06236239 
S      23.30590645      10.03771442      21.23027226 
S      20.36085288      10.13453520      25.40799872 
S      20.64405443      13.29889037      29.01503314 
S      18.48290213      21.68344994      31.28249966 
S      20.37241037      25.76132545      29.89964829 
S      21.21596086      31.03454469      22.73376545 
S      23.85906262      30.56526581      18.87801780 
S      24.74803929      25.39840348      11.67474197 
S      26.39180609      21.01271044      11.23532412 
S      24.09489945      12.58639102      13.19169929 
S      24.30402263      10.37698374      17.44385360 
C      31.40654928      23.17023301      25.73859460 
C      30.85365880      19.63329319      27.52312513 
C      31.72071855      16.99287503      24.64839382 
C      32.73712526      18.83612459      21.19685336 
C      32.67423237      22.61941022      21.89935161 
C      28.88700414      27.61931680      28.66062144 
C      32.27565593      27.31403506      18.42909310 
C      33.11091952      17.01990179      15.57480153 
C      30.79396239      11.12002425      23.55966680 
C      27.71940379      17.84553442      32.10388678 
C      29.71239879      26.54501375      23.49983052 
C      31.59881194      22.31216342      17.42437576 
C      31.00040935      15.18176095      19.88240527 
C      28.74873232      14.90044763      26.96969647 
C      27.64545994      22.21835015      29.33826472 
C      24.84848001      24.60503629      31.19219583 
C      27.98093725      30.00208963      20.95232409 
C      30.50300695      21.42811155      13.23648396 
C      28.84367905      11.33135553      18.41521654 
C      25.41305234      13.30132747      29.49306729 
C      23.98668764      20.49804074      32.56371554 
C      26.36471776      29.97228252      25.52008453 
C      29.93318442      25.98684463      14.63646662 
C      29.69708634      13.84011729      14.91075109 
C      26.44669793      10.63167997      25.74630944 
C      18.94976880      17.32881362      31.82014967 
C      20.43231287      29.94148343      27.16217740 
C      24.76726769      29.37192187      14.50745806 
C      25.73864979      16.00129289      10.71079207 
C      22.22436483       8.62227507      21.68159546 
C      21.67411630       8.92630185      25.84748977 
C      19.30997781      12.80816807      30.17112363 
C      19.34058485      21.20562788      32.83099051 
C      19.20053192      27.01732669      30.53726099 
C      22.17083424      32.03355859      23.93910619 
C      23.25653696      31.92450585      17.80456028 
C      26.17416775      26.52799190      11.43769944 
C      26.01428437      20.55971346       9.50005918 
C      25.73067794      12.11290786      12.49698644 
C      23.49284382       8.74546432      17.24680026 
Ag      19.00594346      20.18799899      19.98353021 
Au      16.15975954      20.20736740      19.06830299 
Ag      21.17483069      20.96236798      18.16457827 
Au      20.90410645      18.14574282      19.04202327 
Au      19.75140653      23.50524892      17.73774219 
Ag      20.50636660      21.76338557      15.43267682 
Au      20.22459260      18.95172770      16.27789960 
Ag      19.96770233      16.13342374      17.15894104 
Au      19.04606163      16.07422618      19.93767142 
Au      18.13922598      16.08910033      22.78108817 
Ag      17.82237642      18.87747651      23.68064196 
Ag      17.55940245      21.72727827      24.59146430 
Au      18.21521444      23.47232321      22.31803356 
Au      19.02177117      25.17726673      20.03299090 
Ag      17.52865250      22.70022921      19.53763484 
Au      18.29605136      20.99910366      17.26298718 
Au      18.02172115      18.16715259      18.10220641 
Au      17.10362748      18.13792357      20.91148700 
Ag      16.81795508      20.93843231      21.81963954 
Au      20.02202553      13.97373535      21.87689485 
Au      19.09449772      14.00886899      24.68253214 
Au      18.76914429      16.83534100      25.62194084 
Au      18.56164827      19.69862558      26.51520560 
Ag      18.23426579      22.56153777      27.37544584 
Au      18.90673801      24.32752418      25.06272423 
Au      19.70703219      26.08849310      22.77031745 
Ag      15.49993946      22.48750776      26.50847670 
Ag      16.09328245      24.24110179      24.20848572 
Ag      16.86052307      25.99670690      21.91849629 
Au      17.71517672      27.74921238      19.62360055 
Ag      18.31183694      26.08785516      17.25356483 
Au      19.12317209      24.32350877      15.06107084 
Au      19.97986893      22.60992421      12.72497892 
Au      19.57594763      19.73235893      13.47459769 
Ag      19.35439982      16.99063421      14.35077045 
Au      19.06514958      14.12230954      15.31929516 
Ag      18.03818244      14.01046302      18.04629420 
Au      17.21257599      14.04098596      20.86204290 
Ag      16.35873624      13.97743818      23.76765092 
Au      15.93191340      16.73902582      24.61653065 
Au      15.75185431      19.64785996      25.48386606 
Au      17.31508455      19.00640317      15.32047031 
Au      17.18661033      16.21623973      16.19633752 
Au      16.09863401      16.08001006      18.96787416 
Ag      15.33702282      16.04269242      21.83080160 
Au      14.92922532      18.86920053      22.75784390 
Ag      14.73712589      21.66000395      23.67153792 
Au      15.34651374      23.46545984      21.40387589 
Au      16.16876231      25.22614367      19.16444209 
Au      16.80207960      23.56069373      16.78649694 
Au      17.65550881      21.81470995      14.55912314 
Au      14.64231963      22.77367556      18.63545190 
Ag      15.38680878      21.02698266      16.27937883 
Ag      15.13600287      18.14200288      17.12883603 
Au      14.21852945      18.13058409      20.00078925 
Ag      13.94419681      20.94356137      20.94307284 
Au      13.28499833      20.20555635      18.15957191 
Au      13.29629254      15.30080995      19.62230158 
Ag      12.46636663      17.34592392      22.24321755 
Au      12.15531355      19.95605036      23.24050451 
Ag      12.49476539      23.24622852      22.13800240 
Au      13.17805380      25.00379072      20.05403115 
Ag      14.16848166      24.99504590      16.69287093 
Au      14.91675162      23.45354856      14.46642553 
Au      15.20388747      20.08463530      13.47749023 
Au      14.98454440      17.42864565      14.22321590 
Au      14.09298952      15.36279816      16.97885959 
Ag      12.28903651      17.52633066      17.88462297 
Au      11.61682666      19.35446483      20.29365689 
Ag      11.88087055      22.38401784      19.37245444 
Au      12.84359320      22.39093200      16.40687008 
Au      13.09394666      19.35383727      15.48291683 
Au      15.33305240      13.27878361      18.67206965 
Au      14.63166703      13.25749849      21.61962444 
Ag      13.60954745      15.08669497      23.85295547 
Au      13.33733651      17.88151014      24.96312302 
Au      13.23062300      20.80474466      25.98138993 
Au      13.37531095      23.67804201      24.99130840 
Au      14.05377915      25.65408598      22.79777445 
Ag      14.91892079      27.48023534      20.45399829 
Au      15.75616994      27.44113731      17.54181142 
Au      16.44836035      25.84753573      15.05452667 
Au      17.47502917      24.02703243      12.78131742 
Au      17.59985683      21.14724231      11.84258349 
Au      17.28802172      18.19575211      12.55462964 
Au      17.20526637      15.34906301      13.51959061 
Ag      16.20715366      13.58647085      15.79920255 
Au      16.57113907      11.47042332      25.44862541 
Au      16.84726401      14.78281787      26.55209243 
Au      16.69570374      17.56024296      27.39256003 
Au      16.48499699      20.36469905      28.26077127 
Au      15.32974944      23.18107250      29.42630642 
Au      16.77781969      25.11900334      26.89903653 
Au      17.54762803      26.79130164      24.66795305 
Au      18.35611627      28.50021815      22.40827029 
Au      18.28756295      30.71772223      20.00734763 
Au      19.69021492      28.62220216      17.57073908 
Au      20.53964146      26.87648966      15.45269937 
Ag      21.28942827      25.17527821      13.19779954 
Au      21.48341428      23.69863417      10.34364376 
Au      21.68933140      20.49640902      11.66059586 
Au      21.56224429      17.69271216      12.48135061 
Au      21.22264445      14.93051692      13.45838439 
Ag      20.47280623      11.90899397      13.83653077 
Ag      19.80761495      11.91079997      17.06219458 
Au      19.10003004      11.93748500      19.89414789 
Au      18.26220780      11.98077579      22.74868065 
Ag      11.36181721      14.27506722      17.51975292 
Ag       9.62095325      18.36081398      22.74728217 
Au      10.16811722      24.96372027      20.88097734 
Au      12.22197635      25.06838315      14.24891252 
Ag      12.90619778      18.49712351      12.31505953 
Ag      12.13768988      27.66072449      21.90116409 
Ag      10.72103377      18.77745267      25.91393979 
Au      12.86988812      11.65763336      19.16058350 
Au      15.42731110      16.58422349      10.82585636 
Au      15.01475567      26.39117677      12.48438988 
Au      14.21973334      26.74590974      25.67846274 
Au      17.57868813      28.69298684      15.14873419 
Ag      19.29901354      18.91443319      10.44322054 
Au      16.89098223      10.91235458      17.37892960 
Au      13.76637477      15.66869049      27.03765283 
S      11.18332135      23.01389161      14.69216455 
S      11.27348221      18.45131977      14.09289233 
S      10.10463027      16.28654934      17.89176351 
S       9.24408933      19.68206737      20.77342922 
S       9.79375844      23.69699530      18.94520803 
S      13.09373123      27.16472326      13.62642818 
S      10.27344576      26.36997653      22.76340093 
S       9.47311915      17.05100356      24.75389953 
S      12.09750345      12.03462245      16.96218222 
S      14.03714956      18.38355018      10.18122927 
S      12.88646352      26.58305016      18.15141967 
S      11.01080488      22.09629155      23.78049319 
S      11.87336149      14.99598572      21.63040837 
S      14.05292023      15.15060539      14.54331946 
S      14.64706106      22.19023049      12.35325497 
S      16.86108462      25.75416065      11.17743583 
S      13.61101928      29.44181169      21.23381194 
S      11.46888407      20.35531936      27.60012716 
S      13.50642713      11.08479094      21.35343974 
S      16.75885546      14.67815732      11.21483341 
S      18.17297469      20.90437749       9.51007374 
S      15.91456165      29.66293226      16.52898523 
S      12.65633268      25.29098638      26.70928903 
S      12.87997790      13.81111915      25.87204599 
S      16.40499133      11.20576620      15.08201161 
S      20.71606113      16.91941213      10.32065977 
S      19.32217655      28.09537145      13.67822539 
S      15.72856845      28.42355153      24.99611754 
S      14.59015491      17.23536257      28.60943387 
S      17.48704161      10.13982387      19.53303969 
S      20.65375690      10.16206211      15.47669471 
S      20.20156782      13.34958609      11.91228010 
S      22.46752698      21.67678321       9.63988352 
S      20.58518555      25.80258127      10.86303405 
S      19.64406045      31.04495924      18.11988993 
S      17.02962674      30.52482689      21.98726897 
S      16.12391712      25.38210687      29.26744527 
S      14.56919869      20.97063791      29.67978387 
S      16.67221304      12.53430072      27.53740998 
S      16.56437810      10.32617881      23.39172764 
C       9.53484193      23.36505017      15.40628434 
C       9.95817718      19.69373954      13.80586185 
C       9.07844603      16.61412347      16.40653085 
C       8.18623998      18.76479747      19.59334369 
C       8.22727967      22.77852236      19.19088305 
C      11.98440022      27.75901121      12.28557491 
C       8.82326800      27.49111466      22.58784412 
C       7.73722012      17.21197049      25.35123070 
C      10.58662945      10.99022629      16.83846787 
C      12.85872332      17.62600389       8.98790814 
C      11.15716864      26.80537440      17.57810677 
C       9.25391820      22.23823508      23.27229258 
C      10.06426640      14.89514175      21.31646970 
C      12.30635722      14.95363424      14.01867009 
C      12.92282964      22.08345140      11.74335198 
C      16.14854632      24.76406893       9.80558125 
C      12.92634539      30.09786792      19.65990516 
C      10.37162144      21.81893122      27.47153580 
C      11.97949793      11.25827486      22.35509771 
C      15.56179826      13.30225408      11.42347101 
C      16.72574362      20.34238421       8.53981346 
C      14.47291376      30.05624092      15.47280960 
C      10.98318731      25.95125719      26.36926679 
C      11.05870157      13.88023411      26.06736900 
C      14.75656094      10.44533557      14.82151962 
C      22.02474214      17.36655657       9.11155821 
C      20.27775026      29.65439152      13.50568387 
C      16.18117820      29.25376211      26.57121228 
C      15.06229050      16.17714678      30.03472807 
C      18.52229503       8.66415932      19.17551878 
C      19.40160708       8.90139367      15.00743383 
C      21.46010536      12.91719855      10.65454327 
C      21.57551681      21.19041612       8.11179335 
C      21.76166375      27.01626389      10.14868546 
C      18.68150854      32.04945065      16.92576111 
C      17.64356436      31.85616071      23.08815438 
C      14.68507920      26.48786202      29.53032154 
C      14.97840366      20.51061931      31.40707220 
C      15.07531749      12.22084619      28.38192117 
C      17.40199568       8.72798529      23.71671870 
H      31.87802308      22.19593845      25.55810404 
H      31.96276412      23.70485507      26.51624027 
H      31.40271557      23.74666727      24.80770380 
H      31.61006323      19.62791500      26.72815553 
H      31.31566726      19.30481945      28.46073615 
H      30.45801196      20.64854111      27.63151906 
H      32.10243654      18.00679631      24.47496230 
H      32.56006152      16.29630406      24.75350268 
H      31.09958585      16.99172741      25.55022195 
H      33.72444854      18.75725836      20.72729441 
H      32.35833109      17.84133386      21.45162122 
H      32.81552809      19.43490871      22.11258087 
H      33.51471371      23.31614523      21.81013073 
H      32.61939638      21.96659494      21.02206084 
H      32.80417519      22.00712000      22.80066349 
H      29.89464559      27.84645793      28.29436824 
H      28.94312160      26.86128495      29.44679553 
H      28.42863339      28.53076973      29.06266523 
H      32.22373864      28.08225241      17.64877914 
H      33.16872914      26.69571651      18.28172403 
H      32.31020910      27.78539762      19.41507525 
H      33.16272080      16.61811081      14.55637319 
H      33.71936444      16.40029091      16.24426355 
H      33.48565678      18.04712663      15.58591516 
H      30.49695731      10.06485536      23.53054783 
H      31.47422744      11.28665809      24.40261877 
H      31.29492171      11.38463732      22.62446328 
H      28.40989120      18.65689896      32.36323656 
H      28.28787927      16.97844085      31.75640052 
H      27.12742839      17.57269558      32.98497584 
H      30.37511648      27.01608959      22.76383255 
H      30.07451823      25.53863405      23.72719856 
H      29.66632095      27.14162743      24.41870596 
H      32.15006728      21.68686694      16.71149601 
H      31.84060540      22.00642872      18.44729349 
H      31.85171664      23.36823970      17.27688113 
H      31.57061837      15.18466206      18.94515129 
H      31.26879490      14.30720951      20.48825400 
H      31.20663226      16.09155362      20.45363804 
H      29.14740226      13.96034862      26.57068099 
H      28.79322962      14.89688963      28.06591896 
H      29.32700809      15.74664393      26.58789917 
H      27.83004529      23.24274920      29.68377540 
H      28.45334924      21.90653245      28.66870554 
H      27.56795602      21.53393380      30.19156708 
H      24.01963066      24.17202171      31.76612475 
H      25.48502532      25.20310375      31.85388576 
H      25.42959292      23.79075706      30.74631931 
H      28.82943961      30.63839162      20.67742054 
H      28.27940517      29.26490812      21.70583796 
H      27.16277158      30.61789517      21.34605715 
H      31.44617765      21.10899418      12.78020897 
H      30.67805246      21.81879749      14.24497707 
H      30.04070700      22.20998588      12.62100652 
H      28.48998383      11.22487493      17.38229035 
H      29.55175755      10.52762643      18.64863240 
H      29.32681459      12.30753178      18.53669301 
H      24.88810461      12.40368923      29.14330865 
H      25.87254435      13.10810471      30.46873841 
H      26.16998031      13.59303247      28.75634100 
H      24.57062471      21.38888365      32.82540685 
H      24.65262186      19.74721346      32.12564224 
H      23.51402336      20.09608426      33.46712802 
H      27.20417922      30.28209728      24.88572248 
H      26.64651072      29.07927938      26.08721630 
H      26.09871514      30.78752990      26.20262837 
H      30.06999017      26.92011564      14.07844335 
H      30.64751010      25.23519551      14.27867165 
H      30.08701504      26.15772914      15.70660963 
H      29.95734162      13.51995877      13.89534644 
H      30.07703928      13.11141143      15.63713114 
H      30.12510629      14.82577954      15.12166019 
H      26.47973269       9.53710619      25.69967957 
H      26.79473438      10.97210398      26.72902482 
H      27.08319875      11.06265600      24.96774013 
H      18.22501870      16.50604064      31.79211604 
H      18.43934458      18.26600000      31.57403663 
H      19.38163573      17.39462753      32.82558290 
H      19.50297555      29.78203169      27.72312232 
H      20.18906804      30.22732169      26.13351441 
H      21.01742721      30.73269098      27.64445095 
H      25.64748627      29.95989960      14.22285781 
H      23.93295906      30.04333818      14.74511191 
H      24.47738499      28.70433524      13.68988603 
H      25.24690420      16.63242483       9.96026497 
H      25.02788300      15.25209044      11.07605983 
H      26.60786660      15.50872387      10.26090958 
H      21.69983562       8.30770378      20.77103819 
H      21.49477925       8.90450620      22.44864033 
H      22.85773289       7.80426910      22.04405717 
H      21.81415565       8.24138378      25.00286984 
H      21.33799700       8.35890289      26.72295807 
H      22.62369951       9.42374171      26.06705931 
H      19.65135867      11.92843968      30.72992050 
H      18.38351745      12.57185580      29.63633723 
H      19.14595628      13.64280255      30.86347212 
H      18.99017949      20.20625671      33.11460316 
H      19.05750448      21.92839850      33.60492623 
H      20.42747080      21.19723199      32.69265045 
H      19.44713812      27.96442555      30.04187423 
H      19.35937185      27.11568155      31.61763553 
H      18.16176889      26.73668941      30.33205040 
H      22.20611151      33.06214035      23.56135137 
H      23.18298911      31.64010251      24.07181646 
H      21.63723929      32.00997011      24.89656477 
H      23.68035583      31.76441784      16.80557234 
H      23.62273729      32.87603021      18.20744678 
H      22.16195617      31.93375678      17.75495197 
H      26.44566868      26.50104609      10.37582874 
H      27.02640005      26.23225641      12.05696006 
H      25.85235285      27.54022710      11.70947964 
H      26.72063553      21.08182518       8.84411374 
H      24.98501483      20.82581207       9.23562828 
H      26.16379619      19.47653557       9.41321480 
H      25.92307649      12.73238073      11.61309329 
H      25.68389791      11.05867742      12.20106249 
H      26.53384174      12.26382118      13.22475437 
H      24.18487780       8.08864655      16.70623844 
H      22.55002239       8.83259262      16.69462938 
H      23.31262025       8.34057499      18.24983952 
H       8.93147718      23.87557701      14.64732212 
H       9.60447029      23.96958988      16.31579635 
H       9.07793684      22.39753688      15.64931475 
H       9.35141274      19.36359710      12.95465417 
H      10.37306017      20.68740062      13.60810885 
H       9.33220690      19.73608450      14.70576878 
H       8.42128693      15.75675827      16.22488259 
H       9.69762946      16.81164035      15.52469820 
H       8.46465154      17.49966808      16.61550146 
H       8.13775094      19.34447493      18.66338653 
H       7.18278094      18.68395898      20.02690316 
H       8.59224545      17.77041885      19.37761057 
H       8.01641170      22.25045940      18.25221896 
H       7.42095711      23.49093941      19.39512189 
H       8.31179793      22.04712740      20.00151499 
H      12.43390715      28.66133440      11.85478887 
H      11.01450456      28.00504780      12.73304278 
H      11.85480726      27.00103267      11.50834289 
H       7.90871192      26.91593465      22.77168459 
H       8.78135065      27.94220303      21.59251856 
H       8.91920148      28.27948096      23.34394389 
H       7.09007167      16.59648384      24.71559049 
H       7.39302729      18.24963692      25.32409062 
H       7.69273333      16.84149364      26.38208489 
H      10.09519850      11.22470421      15.88671177 
H       9.89587742      11.18230579      17.66414870 
H      10.88667783       9.93610157      16.84556540 
H      13.40846601      17.35033644       8.08060930 
H      12.10183587      18.38043320       8.74231162 
H      12.37126183      16.74119390       9.40638666 
H      11.19309736      27.37275882      16.64036041 
H      10.60325795      27.36593059      18.34059182 
H      10.67156045      25.83919323      17.41230151 
H       8.96069498      23.28551141      23.41605138 
H       8.64910445      21.58362165      23.91149598 
H       9.11811147      21.95790969      22.22405646 
H       9.83594688      13.89561149      20.92760818 
H       9.75782668      15.65004297      20.58467789 
H       9.55218644      15.06165005      22.27185300 
H      12.27709647      15.00409478      12.92330534 
H      11.67814968      15.74358201      14.44192760 
H      11.96425939      13.97039541      14.36401329 
H      12.92814396      21.43511515      10.85827460 
H      12.59375955      23.09453180      11.47336514 
H      12.25413208      21.67417734      12.50605100 
H      15.62650940      25.44160501       9.12070190 
H      15.46560718      23.99647485      10.18537982 
H      16.98978840      24.28219913       9.29167804 
H      13.69237400      30.74148959      19.20969584 
H      12.03040106      30.69017131      19.87694929 
H      12.68327641      29.28823155      18.96198276 
H      10.84113591      22.64062585      28.02638057 
H       9.40618282      21.56793692      27.92600775 
H      10.23455568      22.11731261      26.42535007 
H      11.27794218      10.46578029      22.07188513 
H      11.52609491      12.24515781      22.21391335 
H      12.27303898      11.13994337      23.40573455 
H      15.09989211      13.08885226      10.45294587 
H      14.79680218      13.55163288      12.16644577 
H      16.13385867      12.43109620      11.76657459 
H      17.09071818      20.00352655       7.56271649 
H      16.04815693      21.19340320       8.40362453 
H      16.18845515      19.52948215       9.03786706 
H      14.74262134      30.88640504      14.80996871 
H      13.65973732      30.36687615      16.14040577 
H      14.15412435      29.18977930      14.88461917 
H      10.26315325      25.21338092      26.74397456 
H      10.82197930      26.10902063      25.29718245 
H      10.86167913      26.89403901      26.91476571 
H      10.63812416      13.08809198      25.43566882 
H      10.65302815      14.84875822      25.75378769 
H      10.80279199      13.68575935      27.11477909 
H      14.45364250      10.68212467      13.79408248 
H      14.01285033      10.84295549      15.52116682 
H      14.84046614       9.35892694      14.93585250 
H      21.57491148      17.40712699       8.11231400 
H      22.79342582      16.58454906       9.13295072 
H      22.48067079      18.33190311       9.35557431 
H      19.68077378      30.36945390      12.92789113 
H      21.19905807      29.41581942      12.96010786 
H      20.52972557      30.07510026      14.48452711 
H      17.00537068      29.94443769      26.35393182 
H      16.50206493      28.52782259      27.32537442 
H      15.31278191      29.81676797      26.93221337 
H      14.14825165      15.78637635      30.49670077 
H      15.59914122      16.80948655      30.75265292 
H      15.70998352      15.35274116      29.71971664 
H      17.87231303       7.87102989      18.78811422 
H      18.97442436       8.34177475      20.12149031 
H      19.30952043       8.89477179      18.44963098 
H      19.73770354       8.40197344      14.09176917 
H      18.41937563       9.35917901      14.84809796 
H      19.33360980       8.16640222      15.81824340 
H      21.56874038      13.78123824       9.98751517 
H      21.08762901      12.05608134      10.08675414 
H      22.42122227      12.67205184      11.12020192 
H      21.85524255      21.90051459       7.32486330 
H      20.49125710      21.19843489       8.26259039 
H      21.90590506      20.18340999       7.83168170 
H      21.66123512      27.01258689       9.05739827 
H      22.79435719      26.78316850      10.42980533 
H      21.48078082      28.00369448      10.53547140 
H      19.22661893      32.05428607      15.97442455 
H      18.61881828      33.07068851      17.31935413 
H      17.67910280      31.63688931      16.77500921 
H      17.24545068      32.81073979      22.72442365 
H      18.73842322      31.88600085      23.10849522 
H      17.24890357      31.65435438      24.09140706 
H      14.99214543      27.50731639      29.26869226 
H      14.42195546      26.44341304      30.59362558 
H      13.83296490      26.18855826      28.91212254 
H      14.86132141      19.42303961      31.48726147 
H      14.26185363      21.00590578      32.07278824 
H      16.00134306      20.80417614      31.66694885 
H      15.04556900      11.15885654      28.65197660 
H      14.22713790      12.47798696      27.73908800 
H      15.05211962      12.83263935      29.29148182 
H      17.61137596       8.27218585      22.74132161 
H      16.71227914       8.08804789      24.27930900 
H      18.33260765       8.87160082      24.27822713 
