646
Properties=species:S:1:pos:R:3 i=102 optimized=T E=-9873.0515635706 pbc="F F F" jobid=246_80-Ag-30_1-000006-PBE
Ag      21.89438437      20.15916759      20.91248430 
Au      24.72001112      20.16061486      21.88821617 
Au      20.45417595      22.65849772      20.47742812 
Au      19.70210852      20.92382046      22.74606271 
Au      20.01421824      18.12430997      21.84857012 
Au      21.18292101      23.49732259      23.18152474 
Au      20.38326367      21.73931066      25.42158861 
Au      20.67713473      18.94240483      24.60883390 
Au      20.97946197      16.14018964      23.71434961 
Ag      21.87376507      16.09572608      20.93757249 
Au      22.71879212      16.06926925      18.13698019 
Au      23.02461941      18.86834572      17.22505342 
Au      23.27496860      21.68934488      16.36815119 
Ag      22.59602066      23.43155769      18.61804629 
Au      21.82972698      25.16333173      20.88343698 
Ag      23.36812777      22.67579801      21.37746470 
Ag      22.62536015      20.97451712      23.65100391 
Ag      22.88225278      18.17203442      22.78988463 
Au      23.80363783      18.11590974      19.98155742 
Au      24.08593243      20.91923507      19.10758365 
Au      20.89614195      13.95460219      19.06630852 
Ag      21.83218400      13.98168677      16.21200562 
Au      22.11257995      16.80855886      15.31777554 
Au      22.31001113      19.68479737      14.40679998 
Au      22.60832561      22.52398137      13.57604212 
Au      21.91268442      24.32902717      15.86310414 
Au      21.09823626      26.08807209      18.12360873 
Au      20.38944371      27.79840372      20.45294354 
Au      25.33811696      22.43073213      14.45105197 
Au      24.74949492      24.24683408      16.72293212 
Au      23.96432696      25.91514217      18.96658350 
Au      23.12252125      27.74910989      21.29677514 
Ag      22.54216556      26.11246656      23.66231503 
Au      21.81932058      24.36315142      25.86001284 
Au      21.05325561      22.54630202      28.16681950 
Au      21.41756199      19.73028253      27.41814896 
Au      21.63331119      16.97116242      26.48669112 
Ag      21.89092507      14.10458751      25.59768281 
Au      22.85519910      14.01449615      22.82708515 
Au      23.66926958      14.03392949      20.02139856 
Au      24.51558422      14.00273731      17.15264832 
Au      24.95086326      16.83133366      16.25307645 
Au      25.19751592      19.59524974      15.38300382 
Ag      23.64783924      18.98678957      25.60331122 
Au      23.79109302      16.20347614      24.63440007 
Ag      24.83963110      16.12254113      21.90000831 
Au      25.64077739      16.08264669      19.07411427 
Au      26.06705782      18.85972639      18.10512506 
Ag      26.13166853      21.66741458      17.21565507 
Au      25.54502290      23.47308971      19.50686802 
Au      24.70548169      25.20118061      21.72764392 
Au      24.07952043      23.60843026      24.10388142 
Au      23.24300921      21.82996760      26.30385373 
Ag      26.22581135      22.78535867      22.29163886 
Ag      25.48594358      21.03292738      24.62433696 
Ag      25.82823393      18.12777513      23.78251773 
Au      26.69966224      18.11784063      20.89889437 
Au      26.93006684      20.98907111      19.97484480 
Au      27.62819737      20.25056867      22.75129882 
Au      27.82142360      15.25675194      21.24409610 
Ag      28.45979419      17.29446841      18.61912125 
Au      28.69030300      19.96471142      17.62914469 
Ag      28.36207950      23.21527732      18.67365957 
Ag      27.67866159      25.05860706      20.82487218 
Au      26.73247262      25.03236096      24.22550531 
Au      25.94349458      23.50809551      26.37761539 
Au      25.74717020      20.03725489      27.42073709 
Au      25.97282636      17.43381588      26.67208091 
Au      26.97580142      15.35354522      23.84535320 
Au      28.64651980      17.59848847      22.92608329 
Au      29.29616591      19.41438840      20.54383295 
Au      28.96520625      22.41891942      21.42083228 
Au      28.05298194      22.36237953      24.55177448 
Au      27.83225680      19.42261282      25.43390410 
Au      25.58023977      13.40779383      22.15177781 
Au      26.35369884      13.33353015      19.26644932 
Au      27.21063007      15.12615378      16.97333400 
Ag      27.61067321      17.89149353      15.82678646 
Ag      27.70594086      20.82775211      14.91167982 
Au      27.47939367      23.72308543      15.86151725 
Au      26.86780049      25.63998463      18.08948290 
Au      25.85748903      27.46719179      20.40633789 
Au      25.13582174      27.42060124      23.34016541 
Ag      24.39110797      25.93394254      25.86857643 
Ag      23.49666425      24.07974842      28.11897332 
Ag      23.43738066      21.09166532      29.04418345 
Au      23.62345959      18.17024872      28.37790675 
Au      23.76534465      15.33991513      27.34303355 
Ag      24.78852360      13.58004032      25.03324399 
Au      24.36310624      11.48977315      15.50099420 
Au      24.09717072      14.81055733      14.38455378 
Au      24.16791771      17.54928156      13.44576589 
Au      24.37803228      20.36522868      12.62533908 
Au      25.55206984      23.17797330      11.49777953 
Au      24.14715522      25.11724755      14.02884467 
Au      23.26557693      26.82270396      16.20815072 
Au      22.55087686      28.47194879      18.51038565 
Au      22.53438994      30.71254705      20.92804934 
Au      21.12604782      28.60435724      23.27043616 
Ag      20.35031985      26.88986569      25.50053782 
Au      19.62229700      25.07254397      27.68247944 
Au      19.52852634      23.62552037      30.58714484 
Au      19.35295789      20.41705780      29.31922407 
Au      19.47474940      17.65694059      28.40936892 
Au      19.76563071      14.87146570      27.45263803 
Ag      20.39969541      11.83015068      26.97886363 
Au      21.09894959      11.96086792      23.81855582 
Ag      21.85480530      11.92243315      20.98448430 
Ag      22.74949713      11.92899703      18.20087750 
Au      29.88168677      14.33598208      23.52157441 
Ag      31.21959781      18.37213759      18.04461327 
Ag      30.59662331      24.81973803      20.01955399 
Au      28.62624651      25.07690584      26.73383846 
Au      27.99316658      18.47184679      28.85871679 
Au      28.97434151      27.58183981      18.83264847 
Au      30.25085603      18.58870781      14.69087951 
Ag      28.15550605      12.12396973      21.60481906 
Au      25.36807597      16.43812317      30.08987020 
Au      25.83581523      26.46248720      28.44124316 
Au      26.61604812      26.79319205      15.14954511 
Au      23.16709174      28.73824463      25.75845542 
Au      21.75889362      18.95094627      30.74109572 
Ag      23.95771069      11.09681841      23.28815016 
Au      27.12479722      15.67779268      13.70334892 
S      29.63958022      22.99764271      26.35758035 
S      29.49455953      18.52275976      27.05571540 
S      30.82485542      16.45842676      23.17746479 
S      31.66376744      19.69489289      20.00257948 
S      30.97712382      23.65771935      22.08529686 
S      27.75762621      27.19926890      27.27432210 
S      30.74242760      26.21419031      18.06203905 
S      31.35058428      17.00769703      16.06192853 
S      29.09671625      12.14757460      23.85570006 
S      26.64106814      18.30800720      30.78365434 
S      28.06445613      26.55590440      22.84466914 
S      29.82113659      22.07717635      16.95794685 
S      29.33805277      15.05283630      19.30374817 
S      26.84069118      15.15729774      26.28767613 
S      25.97743344      22.23324564      28.50253087 
S      23.98780747      25.89431750      29.76186278 
S      27.35941043      29.15969760      19.50481897 
S      29.34121007      20.11277136      13.15600307 
S      27.51914884      11.21825871      19.43944449 
S      24.16095722      14.47891187      29.59785493 
S      22.75380581      20.98353103      31.43882549 
S      24.86950763      29.60789403      24.36557722 
S      28.19303053      25.34310879      14.14000162 
S      27.99921843      13.91351772      15.00819792 
S      24.57343382      11.20311971      25.65876759 
S      20.59502098      16.91100477      30.45681302 
S      21.43515674      28.27835682      27.28510575 
S      25.08040649      28.43845186      15.85065888 
S      26.24460951      17.22228474      12.15635224 
S      23.34717952       9.95797626      21.21547035 
S      20.31243268      10.12993911      25.26967440 
S      20.64056221      13.17993142      28.96938934 
S      18.51521328      21.62903063      31.29770321 
S      20.38181775      25.72430942      29.95224681 
S      21.14168732      31.03586202      22.79548933 
S      23.86189009      30.49973483      18.99609663 
S      24.71676599      25.36757905      11.64275160 
S      26.30169438      20.96720686      11.20007941 
S      24.21929435      12.55803442      13.40634830 
S      24.48635836      10.26126836      17.49659016 
C      31.31834239      23.31779099      25.69865972 
C      30.79297256      19.74881289      27.46026994 
C      31.70782378      16.94421843      24.70497543 
C      32.74711953      18.78574806      21.16758784 
C      32.48277202      22.62931829      21.89961978 
C      28.83853386      27.85051009      28.61228248 
C      32.24811347      27.24936064      18.29083876 
C      33.09205269      17.07030014      15.46793237 
C      30.58084670      11.06390402      23.75635023 
C      27.74097910      17.63306432      32.09378078 
C      29.73861910      26.69437799      23.58086790 
C      31.60833019      22.19008521      17.36900233 
C      31.09328117      15.19563666      19.81594577 
C      28.53202235      14.91894630      26.95757812 
C      27.57819408      22.30155447      29.39898915 
C      24.69468202      24.93015004      31.15854328 
C      28.04992363      29.93090887      21.01989273 
C      30.51523399      21.52662820      13.18841696 
C      28.96507910      11.42955303      18.33112498 
C      25.43222477      13.18220938      29.33265195 
C      24.15354572      20.53142824      32.53352580 
C      26.28147139      30.05395197      25.44203707 
C      29.85680496      26.03253412      14.46631353 
C      29.81990478      13.91644058      14.83085525 
C      26.24728507      10.46445803      25.81599183 
C      19.27491046      16.99790444      31.73096740 
C      20.47709594      29.84788116      27.29147792 
C      24.61234961      29.27409059      14.28339363 
C      25.73437570      16.15439208      10.75153009 
C      22.25650730       8.58402418      21.76733580 
C      21.63969286       8.92943117      25.67925893 
C      19.30092811      12.68978481      30.12170517 
C      19.34767214      21.12915173      32.85258642 
C      19.21428444      26.95708100      30.64110913 
C      22.09253925      32.03062793      24.00714265 
C      23.32518856      31.84216969      17.86992297 
C      26.12080104      26.50753443      11.34177771 
C      25.90751498      20.54305535       9.46094836 
C      25.80881584      12.23468637      12.55004889 
C      23.63270518       8.67328719      17.15872026 
Au      18.99511250      20.13219831      20.01645016 
Ag      16.10762643      20.11145836      19.12161134 
Au      21.17603911      20.92625638      18.21213426 
Ag      20.89188820      18.10879923      19.05087634 
Au      19.71713404      23.51560386      17.75263012 
Au      20.47720034      21.77092996      15.52155711 
Au      20.17287021      18.90670338      16.29137821 
Au      19.94515598      16.07998132      17.17548003 
Ag      19.00506085      16.06928310      19.97817570 
Au      18.18700024      16.05408026      22.80670996 
Ag      17.81427070      18.86176927      23.69801760 
Ag      17.56798448      21.65820034      24.60632355 
Au      18.30178588      23.40979518      22.35291776 
Au      19.02509155      25.21100528      20.02534871 
Au      17.52752715      22.65248217      19.59017092 
Au      18.24889232      20.93930363      17.31326490 
Au      17.97495262      18.12468027      18.10193558 
Au      17.09768919      18.10224594      20.91951141 
Ag      16.80495943      20.91468789      21.83794379 
Ag      20.05462790      13.98074286      21.90254911 
Au      19.14425477      13.99775010      24.70517702 
Au      18.77813042      16.80642286      25.64073094 
Au      18.56581413      19.64958706      26.52788593 
Au      18.26907444      22.50090659      27.34634436 
Ag      18.94780733      24.27756589      25.06360698 
Au      19.75108956      26.09490631      22.81751892 
Ag      15.52056639      22.43557653      26.53820081 
Au      16.13009168      24.16168492      24.22147357 
Au      16.93196911      25.90751970      21.95471587 
Ag      17.66214017      27.77692604      19.64764640 
Ag      18.24850773      26.10633410      17.31493177 
Ag      19.05950813      24.34704086      15.07012901 
Au      19.84129790      22.56538632      12.77239704 
Au      19.44698132      19.72682263      13.50912602 
Ag      19.26470153      16.89739431      14.43766456 
Ag      19.10679890      14.00924117      15.30851578 
Au      18.08821834      13.98332067      18.10929427 
Ag      17.24958455      13.96534243      20.91050883 
Ag      16.40765157      13.94195960      23.81648203 
Au      15.99023995      16.79817373      24.71306745 
Au      15.74251231      19.60819522      25.56604421 
Au      17.24285196      18.90298925      15.31052488 
Ag      17.11755038      16.10477289      16.25280889 
Au      16.09641977      16.04593969      19.03023373 
Au      15.38620525      16.03932537      21.89487024 
Au      14.91705880      18.86224564      22.72546379 
Ag      14.70246317      21.58800094      23.71408251 
Au      15.30839677      23.40979709      21.47615740 
Au      16.16711879      25.20030463      19.22847560 
Ag      16.80716401      23.51800118      16.86468551 
Au      17.65333683      21.80816136      14.63811305 
Au      14.70130405      22.67934324      18.68253295 
Ag      15.42912092      20.94588623      16.35346768 
Ag      15.10033931      18.09317309      17.17327784 
Ag      14.15694057      18.01907366      20.04133873 
Au      13.87155422      20.88525926      20.96010323 
Ag      13.31260500      20.15229798      18.19363800 
Au      13.20202005      15.24105474      19.53381984 
Au      12.30176793      17.40088469      22.28852926 
Au      11.99346787      19.99411368      23.15061338 
Ag      12.48770408      23.20940904      22.22280692 
Ag      13.18902303      25.01409927      20.10114135 
Ag      14.21870267      24.88306202      16.81159885 
Ag      14.98782170      23.30527261      14.56968329 
Ag      15.21148656      19.99885851      13.54358348 
Au      15.04352145      17.31146589      14.24128549 
Au      14.07365500      15.30768606      16.92367940 
Au      12.34503798      17.55350733      17.84695708 
Ag      11.50736987      19.36177177      20.25449498 
Au      11.94481338      22.32313236      19.43470881 
Ag      12.89833889      22.33958872      16.45200042 
Ag      13.12224051      19.30322263      15.49165778 
Au      15.33171642      13.31645631      18.72163209 
Au      14.56677363      13.38568168      21.65260035 
Au      13.75742511      15.08713418      23.94674859 
Au      13.35217026      17.99044546      24.95035311 
Au      13.20485866      20.81662694      26.01158039 
Au      13.39541752      23.65279336      25.05626796 
Au      14.01376229      25.60923147      22.84358500 
Au      14.98965190      27.40753224      20.60197684 
Ag      15.56025309      27.43340012      17.58663473 
Au      16.45727172      25.76406851      15.13499263 
Ag      17.35088450      24.02993355      12.83413441 
Ag      17.42829655      21.13887665      11.86997655 
Ag      17.32210268      18.10668682      12.55101347 
Au      17.16302213      15.18368166      13.57473961 
Au      16.32196702      13.44778812      15.86384755 
Au      16.54132809      11.44084355      25.47277420 
Au      16.88814668      14.76013170      26.57453934 
Au      16.73357551      17.50846768      27.53428116 
Au      16.52304848      20.35048786      28.31146428 
Au      15.35982595      23.16163526      29.46268795 
Au      16.74501065      25.08026288      26.87918449 
Au      17.59851871      26.75876912      24.68004967 
Ag      18.28945249      28.51266906      22.43015776 
Au      18.34134247      30.69195463      19.94011975 
Ag      19.71002810      28.63396937      17.70225680 
Au      20.47233010      26.92201164      15.47513105 
Au      21.26186576      25.11670638      13.24505924 
Au      21.36441518      23.64241409      10.34095058 
Au      21.54195940      20.43085657      11.63057965 
Au      21.43068403      17.69130290      12.56122689 
Au      21.21037004      14.90814405      13.49219262 
Au      20.41415893      11.75868770      13.77806921 
Au      19.95447600      11.92719465      17.20163642 
Au      19.14785723      11.90706577      19.99484805 
Au      18.27670371      11.96335226      22.77521856 
Au      11.08679151      14.33066894      17.39963959 
Au       9.29585811      18.44968576      22.66419770 
Au      10.18715930      24.93012475      20.72783719 
Au      12.41460601      24.94670466      14.29552079 
Au      12.95668989      18.42363868      12.14492317 
Au      11.97144944      27.65269179      22.04494274 
Ag      10.70277666      18.92604598      25.80848846 
Au      12.81520523      11.77006913      19.17572427 
Ag      15.52107499      16.35079941      11.08413593 
Au      15.11817849      26.41770137      12.57981591 
Au      14.26009123      26.78508450      25.68392309 
Ag      17.54285749      28.53088391      15.47801374 
Au      19.11348801      18.91031227      10.22487959 
Ag      17.00225068      11.03328070      17.67872108 
Ag      13.98788600      15.84591240      26.94889112 
S      11.36693576      22.86261550      14.54132155 
S      11.37369332      18.49222028      13.86965194 
S      10.11692359      16.44059901      17.74835026 
S       9.03955109      19.65145412      20.66317067 
S      10.02103151      23.69959347      18.73736308 
S      13.24290962      27.11453061      13.84743052 
S      10.16164805      26.26014770      22.66977201 
S       9.29190316      17.27118934      24.69791122 
S      11.87233739      12.14004769      17.03423322 
S      14.33750456      18.28399789      10.24341522 
S      12.96725415      26.61350975      18.11936890 
S      10.90122373      22.11070240      23.81184972 
S      11.76151633      15.14428597      21.52993776 
S      13.96305742      15.07791479      14.48656633 
S      14.93354056      22.14918177      12.30909033 
S      16.92663396      25.87201726      11.19399179 
S      13.61563813      29.23246246      21.47029027 
S      11.43078364      20.38745487      27.62223301 
S      13.59349798      11.16824673      21.31198167 
S      16.74163924      14.29373950      11.32749515 
S      18.14106322      20.93168733       9.48880898 
S      15.90084186      29.75784892      16.79997948 
S      12.66899841      25.34998439      26.68827782 
S      12.84657574      13.93956871      25.87073227 
S      16.32992299      11.07672673      15.29764862 
S      20.27278486      16.87580624      10.55058712 
S      19.32109279      28.28423775      13.82592896 
S      15.80629754      28.43199072      24.99838487 
S      14.73107003      17.16231891      28.87850302 
S      17.70150633       9.93542535      19.75232821 
S      20.61616722      10.22717821      15.54652951 
S      20.28623533      13.22983865      11.94781219 
S      22.36485887      21.63434787       9.64282923 
S      20.50350034      25.73443980      10.99062618 
S      19.70935087      31.11207081      18.07251449 
S      16.97581378      30.55542905      21.84760305 
S      16.16389218      25.35922844      29.26642382 
S      14.60132930      20.94985516      29.71465687 
S      16.63044249      12.52144702      27.55568419 
S      16.50408911      10.33685584      23.40188069 
C       9.66449874      23.24190178      15.11197144 
C      10.11888966      19.73399608      13.38207383 
C       9.15942443      16.88340302      16.25181620 
C       7.93877744      18.66210929      19.58229920 
C       8.46252254      22.74021824      18.84866991 
C      12.08495295      27.79094351      12.58699173 
C       8.68683969      27.34204193      22.47050820 
C       7.61815544      17.54815019      25.41220344 
C      10.36852274      11.08138378      17.04319744 
C      13.25983448      17.61142174       8.90961885 
C      11.34759713      27.03338031      17.35649508 
C       9.19803523      22.23693901      23.14405768 
C       9.97967247      15.10836807      21.10119568 
C      12.19949290      15.03727042      13.99316285 
C      13.41826538      22.17016528      11.26500620 
C      16.20249062      24.95051807       9.77935213 
C      12.99865874      30.04506732      19.94604490 
C      10.37855538      21.88743696      27.53717801 
C      12.10553798      11.25539879      22.38527719 
C      15.49323755      12.99189808      11.67275184 
C      16.73544207      20.49719496       8.39538082 
C      14.51924819      30.20570035      15.67637041 
C      11.00858502      26.01272004      26.29597796 
C      11.04202938      14.23291428      25.97442471 
C      14.62530422      10.41148260      15.20616391 
C      21.56814946      16.94057812       9.24930788 
C      20.20482587      29.89466705      13.87190762 
C      16.24992740      29.27465118      26.56861057 
C      15.23482151      15.90382134      30.11861164 
C      18.83621313       8.59404936      19.21613941 
C      19.33848411       8.93929951      15.27032597 
C      21.62012824      12.70093470      10.80628970 
C      21.53541694      21.12953827       8.08778812 
C      21.66184031      26.98685763      10.32228768 
C      18.70265833      32.12837161      16.92300256 
C      17.52492270      31.94954116      22.90881921 
C      14.73443588      26.47581749      29.53622469 
C      15.00366131      20.46319549      31.43477433 
C      15.00242231      12.25364472      28.35772647 
C      17.30347898       8.70849397      23.65781766 
H      31.78503514      22.34088120      25.52023508 
H      31.89380528      23.86706613      26.45198188 
H      31.28030606      23.87645604      24.75789817 
H      31.48037104      19.78623059      26.60577724 
H      31.33334318      19.40622969      28.34988229 
H      30.36899427      20.74419554      27.62796407 
H      32.10496521      17.95404113      24.54250644 
H      32.53660433      16.24456046      24.86208481 
H      31.04376338      16.95277357      25.57498155 
H      33.72864984      18.65881919      20.69666127 
H      32.33015808      17.81132091      21.44139837 
H      32.85263232      19.39648525      22.07285138 
H      33.35160288      23.29439150      21.83717432 
H      32.42626584      21.99027313      21.01212222 
H      32.56934297      21.99835410      22.79286093 
H      29.81338162      28.08823985      28.17100245 
H      28.96343818      27.12083758      29.41691581 
H      28.37668645      28.76391800      29.00492614 
H      32.21547024      28.07445621      17.57010994 
H      33.12201060      26.61918299      18.08730676 
H      32.31249126      27.64960601      19.30639301 
H      33.13077295      16.65577357      14.45401950 
H      33.69604337      16.45027494      16.14096061 
H      33.48121944      18.09222886      15.46310937 
H      30.23056543      10.02542885      23.71988948 
H      31.18838771      11.21508169      24.65584654 
H      31.17937081      11.27962251      22.86704128 
H      28.46182078      18.41308608      32.36485213 
H      28.27063456      16.74052760      31.74992174 
H      27.11774039      17.38637901      32.96126704 
H      30.35642344      27.28668521      22.89442602 
H      30.19210692      25.70907651      23.72094334 
H      29.64909565      27.20766078      24.54541645 
H      32.16397114      21.50447989      16.71772811 
H      31.79058016      21.93033584      18.41658705 
H      31.92020954      23.22458811      17.17895671 
H      31.70154661      15.21020696      18.90295041 
H      31.35440289      14.32490884      20.42960465 
H      31.26689464      16.10817902      20.39336320 
H      28.89626176      13.94416424      26.61302163 
H      28.46747251      14.94531076      28.05209172 
H      29.19764731      15.71439360      26.60843347 
H      27.72156158      23.32823242      29.75660683 
H      28.39941655      22.02406741      28.73083834 
H      27.52185709      21.60211113      30.24085939 
H      23.84273936      24.51370231      31.71080391 
H      25.26783245      25.59848905      31.81012976 
H      25.32663752      24.10893082      30.80418253 
H      28.92653767      30.52676733      20.74241431 
H      28.31691927      29.16980193      21.76173991 
H      27.26834593      30.58380409      21.42807315 
H      31.46569209      21.22324990      12.73664177 
H      30.67308825      21.88882811      14.21092370 
H      30.05946967      22.32487787      12.58920915 
H      28.61458345      11.32429450      17.29703400 
H      29.68843345      10.63823582      18.56030089 
H      29.42486932      12.41575733      18.46572080 
H      24.91856055      12.32000704      28.88860682 
H      25.86159235      12.90751481      30.30264020 
H      26.21430269      13.52580271      28.64813002 
H      24.68693251      21.45947153      32.77413554 
H      24.83991664      19.83317143      32.04350676 
H      23.76065491      20.08839075      33.45546081 
H      27.10552723      30.35622623      24.78425622 
H      26.60007883      29.21079794      26.06306057 
H      25.98276588      30.89947054      26.07217512 
H      29.96807562      26.96181616      13.89597825 
H      30.58676242      25.29416841      14.11230551 
H      30.01492053      26.22073159      15.53350293 
H      30.06681740      13.61858596      13.80549255 
H      30.21200753      13.17377744      15.53646695 
H      30.24765343      14.89900462      15.05728304 
H      26.17163201       9.38198670      25.66174527 
H      26.61274849      10.66207381      26.83092859 
H      26.95052037      10.89208933      25.09386257 
H      18.59598938      16.15310158      31.56158808 
H      18.71631264      17.93661375      31.65982070 
H      19.73868163      16.90711537      32.72007207 
H      19.56505342      29.66846996      27.87431939 
H      20.20251302      30.15254058      26.27608843 
H      21.06965441      30.63354719      27.77357791 
H      25.47320732      29.84917157      13.92324370 
H      23.78089637      29.95334019      14.50845215 
H      24.29766314      28.54870433      13.52633076 
H      25.17712644      16.78506115      10.04791370 
H      25.09514784      15.33236950      11.08940005 
H      26.63348413      15.76107809      10.26333613 
H      21.81157207       8.12381495      20.87674163 
H      21.45774842       8.94253562      22.42570182 
H      22.86353583       7.83794050      22.29326956 
H      21.76483488       8.24725872      24.83031804 
H      21.31502599       8.36206038      26.55935298 
H      22.58814073       9.43754557      25.88564856 
H      19.61310100      11.76860041      30.62838774 
H      18.35721212      12.51982141      29.59206773 
H      19.18042272      13.48984754      30.86181832 
H      19.00405640      20.11993507      33.10852568 
H      19.04042505      21.83218592      33.63555373 
H      20.43672505      21.13315263      32.73925337 
H      19.45814754      27.92220321      30.18023558 
H      19.37275418      27.01779041      31.72420033 
H      18.17518202      26.68361701      30.42645750 
H      22.14796096      33.05715010      23.62621791 
H      23.09768987      31.62324710      24.15244641 
H      21.54667782      32.01945997      24.95792258 
H      23.76230397      31.63171659      16.88626469 
H      23.72160513      32.79003939      18.25235161 
H      22.23257930      31.88987711      17.80011934 
H      26.36068527      26.46130421      10.27299184 
H      26.99373981      26.23285473      11.94190110 
H      25.79598488      27.52148637      11.60326527 
H      26.62161871      21.05944117       8.80885173 
H      24.88277585      20.83287395       9.20417758 
H      26.03447283      19.45852493       9.35690551 
H      25.85456908      12.87585169      11.66190601 
H      25.81158132      11.18148935      12.24547908 
H      26.66220541      12.44506566      13.20189204 
H      24.29681657       8.02923943      16.57115247 
H      22.69068309       8.82827068      16.62181009 
H      23.43748907       8.20872829      18.13324910 
H       9.13205741      23.78098814      14.32080739 
H       9.67651375      23.83117948      16.03441747 
H       9.16543113      22.28260783      15.29758816 
H       9.61042416      19.38812442      12.47541121 
H      10.56735668      20.71889455      13.21731804 
H       9.39317972      19.79848527      14.20261740 
H       8.35126452      16.15390105      16.12682967 
H       9.78818136      16.91587372      15.35626833 
H       8.73094133      17.87800556      16.42817406 
H       7.82137440      19.21854367      18.64376609 
H       6.96154671      18.56002078      20.06688176 
H       8.36111314      17.67602655      19.36454157 
H       8.40674963      22.11458508      17.94924984 
H       7.62109670      23.44188580      18.86071367 
H       8.44329144      22.09743351      19.73505365 
H      12.51222646      28.72753452      12.20989520 
H      11.12633166      27.99331482      13.07856736 
H      11.94014192      27.08955798      11.76073012 
H       7.79159064      26.72118723      22.59133839 
H       8.67578804      27.82715087      21.49073801 
H       8.72092812      28.10057901      23.26127520 
H       6.88469597      16.99210115      24.81724122 
H       7.35399762      18.60924202      25.42398005 
H       7.62717646      17.16148220      26.43828530 
H       9.79462136      11.30430610      16.13627262 
H       9.75237971      11.26602593      17.92729668 
H      10.69435148      10.03476890      17.02743753 
H      13.90187175      17.36127727       8.05668387 
H      12.54359764      18.38708392       8.61564143 
H      12.72136928      16.71851447       9.23898555 
H      11.53156416      27.48380386      16.37463256 
H      10.83199543      27.74753940      18.00938233 
H      10.73774284      26.13077245      17.24611564 
H       8.81334395      23.22555077      23.42219194 
H       8.58250539      21.44796392      23.59302419 
H       9.18484911      22.12922951      22.05566524 
H       9.77343460      14.15904527      20.59219265 
H       9.71363159      15.94289313      20.44602683 
H       9.41446380      15.17615904      22.03830114 
H      12.14389664      15.20469578      12.91057774 
H      11.62434585      15.80891664      14.51156823 
H      11.80825123      14.04529900      14.24939590 
H      13.48795906      21.35780756      10.53318152 
H      13.35909327      23.14028705      10.75818458 
H      12.53525924      22.03182800      11.89793900 
H      15.61290757      25.63525921       9.16026657 
H      15.58332942      24.11419891      10.12031289 
H      17.04695168      24.55874642       9.19821551 
H      13.82877987      30.64482233      19.55151661 
H      12.15543051      30.69369144      20.20832596 
H      12.70019132      29.30169543      19.19895279 
H      10.88514686      22.68920808      28.08831599 
H       9.41764620      21.65924639      28.01317398 
H      10.22181049      22.19893417      26.49770947 
H      11.44436761      10.41688294      22.13975344 
H      11.58189616      12.20895104      22.25945225 
H      12.45595595      11.16799501      23.42140350 
H      15.01823453      12.70834466      10.72661145 
H      14.73962247      13.34311641      12.38683822 
H      16.01989234      12.13053587      12.10209944 
H      17.11838038      20.02090700       7.48608726 
H      16.23372070      21.43651872       8.13150826 
H      16.02480362      19.83342535       8.89961260 
H      14.84393344      31.02069257      15.01931800 
H      13.67989041      30.54881793      16.29329086 
H      14.19612972      29.35043630      15.07355627 
H      10.27546999      25.27780079      26.65046159 
H      10.88117817      26.16615365      25.21985890 
H      10.87294235      26.95835767      26.83306730 
H      10.54414090      13.59729189      25.23274300 
H      10.78573744      15.27900780      25.78117350 
H      10.71156971      13.95029702      26.98113954 
H      14.16965446      10.74727087      14.26724698 
H      14.01245384      10.75182145      16.04590929 
H      14.68976643       9.31673544      15.21256385 
H      21.08912590      16.81329932       8.27165006 
H      22.26168788      16.11088765       9.43353253 
H      22.11455947      17.88859754       9.28297636 
H      19.58620591      30.63724995      13.35376296 
H      21.15919061      29.78048148      13.34411532 
H      20.39289863      30.22080607      14.90072936 
H      17.07105188      29.96791230      26.34864472 
H      16.57221723      28.55424803      27.32736096 
H      15.37829266      29.83596052      26.92452873 
H      14.32888720      15.44423788      30.53170565 
H      15.78620156      16.40977704      30.92031025 
H      15.87257955      15.13475749      29.67032697 
H      18.24137952       7.80653517      18.73819244 
H      19.33254830       8.18791554      20.10583381 
H      19.59377038       8.96555843      18.51802975 
H      19.64187782       8.35549461      14.39348118 
H      18.35046672       9.38325707      15.11039099 
H      19.31899809       8.29098243      16.15405933 
H      21.74305591      13.49559044      10.06038411 
H      21.30043370      11.77823389      10.30796703 
H      22.56011953      12.53410916      11.34391186 
H      21.84892972      21.82763582       7.30283226 
H      20.44590035      21.13843117       8.19521208 
H      21.87664959      20.11801619       7.83744177 
H      21.48949474      27.07374705       9.24308196 
H      22.70340339      26.70905610      10.51772209 
H      21.42184169      27.93875637      10.81148758 
H      19.26809841      32.23527882      15.98959216 
H      18.55439522      33.11605792      17.37374271 
H      17.73584104      31.65346915      16.72157524 
H      17.18881507      32.89124877      22.46041336 
H      18.61411285      31.95744023      23.02590320 
H      17.04167180      31.81766653      23.88467541 
H      15.04107146      27.49036368      29.25545214 
H      14.48734243      26.44782632      30.60397642 
H      13.87081626      26.17319478      28.93608821 
H      14.91157987      19.37120002      31.48359192 
H      14.26883118      20.92688280      32.10330969 
H      16.01707974      20.77393031      31.71069061 
H      14.92750012      11.18942863      28.60953535 
H      14.17923804      12.54800366      27.69877075 
H      14.97736821      12.85123724      29.27644863 
H      17.49680116       8.29743514      22.65909488 
H      16.60452112       8.05901520      24.19730465 
H      18.24137984       8.80736642      24.21560075 
