646
Properties=species:S:1:pos:R:3 i=85 optimized=T E=-9687.6989655072 pbc="F F F" jobid=246_80-Ag-10_2-000002-PBE
Au      21.93586301      20.20187855      20.96605589 
Ag      24.83674928      20.20076244      21.89456570 
Au      20.44168073      22.68208430      20.49570710 
Ag      19.72175351      20.96649843      22.73266094 
Au      20.00571766      18.17841925      21.87583940 
Au      21.17177895      23.52555139      23.17711261 
Au      20.39649901      21.79291414      25.42372068 
Au      20.69952804      18.99286032      24.62825275 
Au      20.93276153      16.16602957      23.76222879 
Au      21.86161921      16.12590429      20.96023096 
Ag      22.73181939      16.10599125      18.16050378 
Au      23.04018985      18.88042748      17.26398946 
Au      23.29926367      21.71785441      16.38938157 
Au      22.66405357      23.48814717      18.63496122 
Au      21.86772960      25.16833564      20.87878898 
Ag      23.39598211      22.69671263      21.39827299 
Au      22.66617336      21.00848113      23.66557337 
Au      22.93899029      18.20265316      22.84666282 
Au      23.82522935      18.15812005      20.02955323 
Au      24.10712061      20.93234655      19.16134076 
Au      20.85604542      13.96826329      19.00885106 
Au      21.84399624      14.03379473      16.19842372 
Au      22.15694542      16.84980066      15.30475756 
Au      22.34524782      19.68457023      14.40419730 
Au      22.66220347      22.55289428      13.59372479 
Au      22.00724902      24.36291281      15.85182524 
Au      21.20253004      26.08104712      18.13444567 
Au      20.43294665      27.76459729      20.45288282 
Au      25.38462927      22.46059079      14.49558875 
Au      24.82794254      24.32108158      16.74654999 
Ag      24.02460156      25.99643699      18.98835033 
Au      23.16447895      27.73010014      21.28606710 
Ag      22.55851044      26.09377422      23.65527038 
Au      21.79180006      24.39832603      25.85843830 
Au      20.95306768      22.62045282      28.17996299 
Au      21.37412991      19.76364635      27.42669602 
Au      21.58240111      17.01207752      26.54737596 
Au      21.76603212      14.11239366      25.65981548 
Au      22.82908996      14.03830098      22.85786095 
Au      23.62926370      14.04030090      20.06940704 
Au      24.48580926      14.02550768      17.19979957 
Au      24.92952899      16.80893387      16.27938244 
Au      25.14469587      19.57314956      15.43533500 
Au      23.68408407      19.01827735      25.65712703 
Au      23.77729858      16.21599496      24.74728145 
Au      24.82504493      16.07825982      21.97317318 
Au      25.57736892      16.05620366      19.13782936 
Au      26.06759127      18.80189323      18.16097625 
Au      26.15998670      21.64374712      17.26015599 
Au      25.57172171      23.47300725      19.54955052 
Au      24.73700956      25.20720664      21.76771460 
Au      24.13726736      23.54870618      24.11468574 
Au      23.27156920      21.86129877      26.35640442 
Ag      26.31679085      22.79723005      22.31614039 
Au      25.54317952      21.04392913      24.66757087 
Au      25.81395559      18.11486542      23.84434996 
Au      26.71619163      18.08075971      20.93201590 
Au      26.99029656      20.95010412      20.00658547 
Au      27.67287074      20.18642372      22.79925614 
Au      27.66784795      15.14544817      21.41797909 
Au      28.57272277      17.25623154      18.60854310 
Au      28.80631960      19.84992158      17.68116069 
Au      28.47157237      23.28620592      18.83732969 
Au      27.82579481      24.98997786      20.91370661 
Au      26.77377425      25.00369941      24.30340295 
Au      26.08120644      23.44622986      26.47584665 
Au      25.72855036      20.07314682      27.59912942 
Au      25.94757150      17.40503268      26.86757994 
Au      26.84108942      15.26645091      24.07473099 
Au      28.55006327      17.48546259      23.08734293 
Au      29.31523459      19.32475249      20.63363216 
Au      29.07131970      22.29239801      21.53355439 
Au      28.11686064      22.33910520      24.58678407 
Au      27.77698143      19.40932504      25.54211613 
Au      25.57496228      13.29811329      22.30534232 
Au      26.25314902      13.29229148      19.34041399 
Au      27.16469370      15.10117097      17.05404966 
Ag      27.61329478      17.86961922      15.87372027 
Au      27.64378723      20.79248649      14.98788703 
Ag      27.60712779      23.74619638      16.00024570 
Au      26.86117229      25.69327712      18.21414196 
Au      25.91249366      27.46584615      20.52896582 
Au      25.09626375      27.44018453      23.42850163 
Au      24.40493835      25.80963609      25.86913851 
Au      23.45210533      24.05835342      28.15151901 
Au      23.31656626      21.22170394      29.06797514 
Au      23.59935669      18.21940385      28.43848932 
Au      23.67099812      15.33134508      27.45466272 
Au      24.56718310      13.58548006      25.18298272 
Ag      24.11447749      11.63634920      15.39693883 
Au      24.16681471      14.78009407      14.38674375 
Au      24.23416721      17.53777055      13.45634814 
Au      24.42319285      20.34923921      12.64868304 
Au      25.53959526      23.23651002      11.54390702 
Au      24.17285598      25.09039438      14.04866752 
Ag      23.36674791      26.88387525      16.21072897 
Au      22.54900972      28.51290845      18.53485154 
Ag      22.54250019      30.64553814      20.84469028 
Au      21.16787908      28.66213307      23.22372066 
Au      20.35155057      26.99247093      25.43781644 
Au      19.58458510      25.17982768      27.66281078 
Au      19.49632227      23.73459316      30.59956646 
Au      19.33165024      20.47330975      29.34629153 
Au      19.38991207      17.73131619      28.44458265 
Au      19.62483068      14.94908727      27.49417512 
Au      20.56009486      11.81242742      27.23484464 
Au      21.12406195      11.92194628      23.80341609 
Au      21.77134201      11.88921624      20.97791849 
Au      22.62800934      11.95980160      18.14296497 
Au      29.77671163      14.26055236      23.57469609 
Au      31.48137310      18.26625333      18.07493615 
Au      30.84323764      24.91781663      19.99732098 
Au      28.77707600      25.10117283      26.68308944 
Au      28.08439377      18.47527537      28.90266924 
Au      28.94617999      27.69476726      18.87480793 
Au      30.30353408      18.65581478      14.75489431 
Au      28.07212891      11.70416144      21.74916092 
Au      25.38118893      16.52019007      30.18190100 
Au      25.93365473      26.44384186      28.37789775 
Ag      26.51633886      26.59144596      15.34689113 
Ag      23.18503976      28.56757941      25.57495459 
Au      21.71966106      18.87621364      30.77805483 
Au      24.10473285      10.85062580      23.39065439 
Au      27.16392867      15.66415621      13.77387525 
S      29.80946497      23.04114364      26.24552974 
S      29.51954827      18.54754210      27.04833132 
S      30.74090564      16.37207296      23.23156762 
S      31.69512246      19.52639127      20.03976805 
S      31.12708103      23.60078677      21.92221730 
S      27.88805743      27.19867412      27.27805053 
S      30.72821356      26.33429196      18.11594899 
S      31.47521221      17.06362493      16.05035771 
S      29.01474482      12.05543390      23.89118586 
S      26.79699997      18.29014129      30.86425452 
S      28.07106594      26.49112877      22.84873026 
S      29.75664153      22.07386697      17.13470118 
S      29.16299302      15.03010876      19.45744500 
S      26.91445366      15.16245336      26.52582248 
S      26.25086074      22.24202796      28.61699177 
S      24.07304808      25.85094354      29.68657839 
S      27.31940252      29.23177059      19.59560932 
S      29.29766294      20.19572803      13.29691096 
S      27.30540393      11.11130628      19.60568051 
S      24.05950032      14.62149957      29.75765061 
S      22.77091723      20.89663686      31.41911672 
S      24.97805059      29.69785196      24.31529533 
S      28.21028342      25.27082042      14.15171689 
S      28.00169665      13.90330277      15.10616751 
S      24.60755433      11.20209816      25.67715428 
S      20.48334215      16.88909994      30.48053569 
S      21.34417413      28.39732498      27.17356949 
S      25.12641356      28.56262978      15.72632843 
S      26.33200593      17.20798569      12.20091684 
S      23.50054670      10.16342507      21.21856727 
S      20.40940196      10.26030018      25.47778699 
S      20.57974349      13.30301107      29.05585584 
S      18.53641534      21.71535020      31.31973597 
S      20.33222949      25.82360204      29.91209816 
S      21.17260447      31.08109571      22.77324997 
S      23.92089369      30.49573263      18.86907490 
S      24.71902365      25.43902367      11.67240503 
S      26.31581769      21.03404486      11.24022803 
S      24.22318219      12.63429164      13.20103707 
S      24.25617343      10.29264402      17.40480603 
C      31.45976522      23.35607000      25.51830712 
C      30.83785175      19.77475198      27.37631059 
C      31.67997297      16.83290617      24.73391796 
C      32.77031879      18.60584540      21.20147430 
C      32.63549499      22.58926295      21.69141483 
C      28.94804322      27.80049004      28.65482506 
C      32.19931266      27.43102737      18.23580583 
C      33.19343891      17.16422776      15.40320438 
C      30.52672834      11.00945077      23.88197870 
C      27.90478978      17.50719263      32.10518842 
C      29.79661611      26.54594770      23.45908781 
C      31.54122095      22.22581819      17.52816231 
C      30.93536947      15.05741491      19.91842749 
C      28.66878498      15.06218748      27.04264006 
C      27.97620511      22.18012830      29.22917665 
C      24.78676410      24.92368768      31.10183571 
C      28.03440078      29.97778470      21.11341043 
C      30.40983150      21.65657327      13.31872278 
C      28.79100988      11.25256070      18.53586918 
C      25.27256708      13.25961311      29.54465477 
C      24.24596436      20.46992594      32.41364030 
C      26.35238765      30.04059360      25.47569961 
C      29.83023821      26.08010468      14.44798191 
C      29.82836149      13.91797473      14.99461156 
C      26.31391314      10.61028330      25.96982194 
C      19.17405876      17.01367013      31.76260126 
C      20.46514410      30.00217930      27.00812946 
C      24.74494070      29.16228591      14.02972098 
C      25.83141914      16.12794858      10.80180771 
C      22.53544093       8.62973351      21.51725561 
C      21.67218976       8.96850835      25.79154908 
C      19.25500809      12.71975231      30.18099762 
C      19.39578641      21.22969188      32.86475616 
C      19.16149266      27.07691767      30.55613418 
C      22.17444467      32.05660774      23.96168385 
C      23.33980586      31.75661079      17.67350232 
C      26.15352321      26.55066497      11.40940124 
C      25.93768219      20.61285307       9.49717321 
C      25.88764709      12.24161475      12.53355297 
C      23.39438884       8.70950446      17.07144051 
Au      18.98711287      20.18676143      19.99511661 
Au      16.08443038      20.21232154      19.05626284 
Au      21.17890201      20.97278345      18.21582781 
Au      20.90702491      18.16150130      19.06546014 
Au      19.75103710      23.51356136      17.78945039 
Au      20.50650660      21.77543209      15.50034078 
Au      20.19025809      18.98002529      16.30947352 
Au      19.98791399      16.16311137      17.17506113 
Au      19.03710725      16.11612020      19.93799494 
Au      18.17697719      16.09950878      22.76175546 
Au      17.85466412      18.88837088      23.67915061 
Au      17.59019396      21.68315167      24.55480334 
Au      18.25990640      23.46460922      22.32580034 
Au      19.00313579      25.20060335      20.08860424 
Ag      17.52349013      22.68848056      19.57032261 
Au      18.23028553      21.02445746      17.26296034 
Au      17.96330065      18.18497471      18.06935333 
Au      17.06533140      18.14279512      20.87797561 
Au      16.79740265      20.92271863      21.80305222 
Au      20.05052408      13.98155750      21.88920574 
Au      19.08893949      14.01392190      24.72687131 
Au      18.75570781      16.84576474      25.62623186 
Au      18.56362392      19.69982855      26.53742979 
Au      18.24182419      22.54641630      27.35821397 
Au      18.92216919      24.33814257      25.07500542 
Au      19.73967226      26.09099620      22.79736980 
Au      15.53725931      22.41191246      26.51117473 
Au      16.10403654      24.25175000      24.20836015 
Ag      16.84508138      25.97756378      21.96919469 
Ag      17.68837437      27.77586649      19.66882648 
Au      18.32924084      26.05618451      17.32534819 
Au      19.12894285      24.33729940      15.09257175 
Au      19.95983290      22.61849157      12.76673356 
Au      19.53894332      19.74494747      13.49489326 
Au      19.33513032      16.99852137      14.38269522 
Au      19.15660342      14.11782697      15.27571349 
Au      18.07474048      14.00109432      18.04814089 
Au      17.26081164      14.02702252      20.83040625 
Au      16.42663763      13.97089727      23.75089435 
Au      15.98234826      16.79342765      24.64933365 
Au      15.74679071      19.56789171      25.53571594 
Au      17.22648626      18.99349787      15.28052774 
Au      17.11467995      16.20075312      16.16298969 
Au      16.07205608      16.06653725      18.94309741 
Au      15.34241643      16.05490790      21.78902355 
Au      14.85103957      18.82023410      22.71582742 
Au      14.69563360      21.59241538      23.68231880 
Au      15.32973850      23.45766363      21.43304411 
Au      16.18137196      25.18814341      19.23463754 
Ag      16.77143588      23.55561929      16.80701443 
Au      17.62775163      21.82381492      14.58007365 
Ag      14.61482107      22.76306310      18.64198252 
Au      15.34306345      21.06217705      16.27210439 
Au      15.09476009      18.11593206      17.10246428 
Ag      14.13532095      18.03684811      19.99122441 
Au      13.87432065      20.91327910      20.92586082 
Au      13.23237322      20.17515343      18.14047957 
Au      13.24896512      15.17116819      19.47001288 
Au      12.30680613      17.28600432      22.27074396 
Au      12.00674934      19.85848660      23.23413725 
Au      12.43864648      23.22501654      22.19771080 
Au      13.13633214      24.91630001      20.10654138 
Au      14.15261684      24.94515970      16.66018986 
Au      14.82491622      23.42943684      14.48966962 
Au      15.19264320      20.06932313      13.36877770 
Au      14.96506190      17.39085853      14.06698016 
Au      14.08891179      15.25957211      16.82086972 
Au      12.37694708      17.48764151      17.72250652 
Au      11.53468280      19.38007539      20.28891862 
Au      11.83328231      22.28312144      19.43042504 
Ag      12.75120600      22.36662071      16.35706179 
Au      13.11742245      19.41645177      15.40266037 
Au      15.33280093      13.28038793      18.60972477 
Au      14.63398449      13.30238083      21.58334651 
Au      13.75166896      15.07143515      23.84281478 
Au      13.33850529      17.87355828      24.97158239 
Au      13.21807450      20.77258272      25.99999465 
Au      13.37279856      23.63546952      25.04195031 
Au      14.01818527      25.67216816      22.82814448 
Ag      14.86792420      27.38330534      20.48733036 
Au      15.77384006      27.39195119      17.58629377 
Au      16.53078287      25.82862772      15.08126210 
Au      17.46656886      24.05911429      12.81895676 
Au      17.59182207      21.20403691      11.86234815 
Au      17.31015668      18.21904821      12.48733035 
Au      17.25328500      15.31807578      13.45419677 
Au      16.35558522      13.56448620      15.71172715 
Au      16.58387321      11.48104528      25.48401763 
Au      16.77266276      14.78457636      26.56009203 
Au      16.69803863      17.52192972      27.48793446 
Au      16.52124563      20.32752946      28.34376376 
Au      15.32275567      23.16362255      29.44451370 
Au      16.67228322      25.11164491      26.89881251 
Au      17.55584241      26.81438939      24.72565685 
Au      18.31052151      28.47055743      22.40550359 
Au      18.31805560      30.72381159      20.06195830 
Au      19.69409796      28.60906656      17.65447668 
Au      20.56478498      26.88742003      15.48818242 
Ag      21.30325712      25.18121664      13.20391900 
Au      21.39255268      23.74163940      10.35544114 
Au      21.59994144      20.48242329      11.61306803 
Au      21.53722404      17.72762424      12.48045665 
Au      21.28703719      14.95163422      13.43347917 
Au      20.35113790      11.83605091      13.65463716 
Au      19.80288082      11.90640686      17.10782843 
Au      19.11671692      11.86699135      19.92481593 
Au      18.31509328      11.95543070      22.73920874 
Au      11.15137260      14.24278473      17.32815640 
Au       9.31569444      18.24491043      22.80357775 
Ag      10.23264795      24.80349495      20.84687696 
Au      12.13478727      25.03981389      14.28165949 
Au      12.85544289      18.48518134      12.02086451 
Au      11.92824110      27.67828597      22.05680428 
Ag      10.72015009      18.81021617      25.89882688 
Au      12.84588825      11.68073811      19.15580308 
Au      15.55268312      16.54928917      10.71941985 
Au      14.97575215      26.39075220      12.58868485 
Au      14.21527319      26.78193656      25.69487295 
Au      17.68217256      28.75025104      15.22987582 
Au      19.23012641      18.89365718      10.15055699 
Au      16.79339373      10.81703582      17.50039015 
Au      13.72979463      15.69994360      27.08752395 
S      11.02621345      23.00545710      14.62881253 
S      11.40707767      18.53662860      13.86500930 
S      10.19027136      16.35727683      17.66586307 
S       9.11883551      19.44382475      20.79796697 
S       9.82537482      23.54800995      18.82385556 
S      13.05287128      27.14602249      13.74050959 
S      10.11346969      26.31368868      22.72657818 
S       9.29911563      17.11939759      24.86088612 
S      11.90968108      12.03585650      17.01243866 
S      14.15018372      18.33743733      10.05954555 
S      12.92854282      26.44820332      18.17900325 
S      10.95184054      22.03799231      23.74955562 
S      11.76296363      15.05232993      21.43138600 
S      14.00478453      15.14031261      14.36763955 
S      14.68173040      22.23590384      12.33486717 
S      16.82091020      25.81042743      11.25205223 
S      13.55228341      29.26840133      21.44458879 
S      11.49234851      20.32867400      27.63853353 
S      13.61476929      11.10212792      21.30075648 
S      16.86525482      14.64475672      11.13969459 
S      18.17994317      20.91842154       9.51254805 
S      15.97222932      29.62573846      16.62098483 
S      12.64747151      25.29592502      26.66634087 
S      12.87353937      13.90977469      25.79505314 
S      16.30248408      11.18250427      15.21425192 
S      20.46560844      16.90263335      10.43131243 
S      19.46382817      28.23989152      13.76392931 
S      15.75416483      28.45289223      25.04831836 
S      14.55925600      17.24340132      28.66585835 
S      17.40800643      10.11387623      19.66574071 
S      20.51726818      10.27921713      15.40426439 
S      20.29409328      13.34540675      11.85160155 
S      22.41633382      21.73752957       9.66515571 
S      20.50364995      25.84187955      10.90895477 
S      19.70529507      31.01732645      18.19185090 
S      16.98362238      30.49957779      21.98376692 
S      16.09505846      25.37650088      29.27679263 
S      14.61180285      20.94213820      29.76538345 
S      16.60729194      12.54745061      27.57659827 
S      16.63479442      10.30400095      23.44751949 
C       9.35372958      23.39760074      15.26503377 
C      10.07268207      19.74039135      13.51738138 
C       9.22672119      16.79370063      16.17114841 
C       8.07822431      18.47872682      19.64241809 
C       8.32306788      22.51084244      18.98256917 
C      11.97556290      27.80498202      12.40371115 
C       8.64249034      27.38963151      22.47220821 
C       7.62434170      17.40506520      25.56736808 
C      10.39380588      10.99529618      17.02108556 
C      13.04431569      17.58152158       8.80019650 
C      11.20702781      26.66024637      17.58221231 
C       9.25032460      22.16096524      23.08354315 
C       9.98591633      15.03191619      20.98795438 
C      12.24593572      15.05023641      13.86458689 
C      12.96458643      22.18574897      11.69942581 
C      16.11435280      24.85860716       9.85108881 
C      12.87517745      30.05537817      19.92764222 
C      10.42669024      21.82038006      27.54433943 
C      12.12860957      11.22939577      22.37202756 
C      15.64646378      13.28487159      11.33197406 
C      16.72561773      20.48817594       8.48858767 
C      14.54359007      30.02734530      15.54907691 
C      10.97275905      25.93159991      26.29359445 
C      11.04711310      14.00325906      25.85251298 
C      14.59490234      10.60296223      14.90426815 
C      21.78396010      17.04468254       9.16012885 
C      20.44723935      29.79059298      13.72135299 
C      16.19035251      29.26738837      26.63576052 
C      14.99026062      16.18685854      30.10485108 
C      18.39077128       8.59485959      19.35026920 
C      19.26841161       8.97573112      15.08168934 
C      21.57361254      12.77849283      10.66875278 
C      21.58916318      21.23342825       8.10788881 
C      21.67718040      27.05563256      10.18855237 
C      18.76230425      32.03243621      16.99054337 
C      17.55432937      31.80216485      23.14084065 
C      14.64664907      26.46890895      29.54386825 
C      15.03362194      20.54432966      31.50436247 
C      14.97361331      12.23620710      28.34921464 
C      17.47971550       8.71924307      23.81367242 
H      31.91785108      22.37744246      25.32723892 
H      32.06247416      23.90586388      26.24992922 
H      31.39580315      23.91235290      24.57800863 
H      31.48152359      19.79905815      26.48799925 
H      31.41878582      19.43503342      28.24113178 
H      30.43445722      20.77629763      27.55381692 
H      32.09359100      17.83408424      24.55926788 
H      32.49817745      16.11556968      24.86348565 
H      31.04558468      16.85722895      25.62511330 
H      33.76633957      18.51423408      20.75394251 
H      32.36463625      17.61816842      21.44125956 
H      32.83334449      19.20173766      22.12064183 
H      33.49674769      23.26318836      21.62044933 
H      32.56964191      21.95542064      20.80171505 
H      32.73841260      21.95487654      22.58075596 
H      29.93311403      28.04334551      28.23986232 
H      29.05120148      27.04760161      29.44087537 
H      28.48509906      28.70601532      29.06413537 
H      32.10262104      28.20678382      17.46720794 
H      33.09018091      26.82351292      18.03879552 
H      32.27519478      27.89302336      19.22380464 
H      33.19460553      16.75915872      14.38455140 
H      33.83114181      16.54869666      16.04819075 
H      33.55830635      18.19485331      15.39501388 
H      30.20904401       9.96021627      23.87715140 
H      31.09008911      11.22215514      24.79793024 
H      31.14926085      11.21336023      23.00661162 
H      28.67901167      18.23536674      32.37333151 
H      28.36888446      16.59901899      31.71118438 
H      27.30185253      17.26475189      32.98808434 
H      30.41377932      27.02495252      22.68902067 
H      30.17667541      25.54109883      23.66005561 
H      29.80297228      27.13950817      24.38120511 
H      32.09248597      21.56023423      16.85277602 
H      31.73511060      21.94031333      18.56614226 
H      31.83362533      23.26952571      17.36392880 
H      31.51871823      15.08207878      18.99023610 
H      31.15302836      14.14342705      20.48469566 
H      31.17186342      15.93192188      20.53002491 
H      29.03663959      14.06394869      26.77691213 
H      28.71144531      15.21096475      28.12863829 
H      29.27153317      15.82583329      26.54423850 
H      28.27920709      23.20092056      29.49293141 
H      28.65124822      21.78361345      28.46628276 
H      27.99265499      21.53372640      30.11479739 
H      23.94362571      24.48695425      31.65156987 
H      25.32910995      25.62528678      31.74543163 
H      25.45104586      24.12460039      30.75540287 
H      28.86859044      30.62750156      20.82605469 
H      28.36964693      29.20538759      21.81406139 
H      27.23879492      30.57179526      21.58055766 
H      31.32495064      21.41008555      12.76902916 
H      30.64357437      21.96103412      14.34444369 
H      29.87223428      22.46994631      12.81497779 
H      28.44627113      11.15807437      17.49857190 
H      29.47713451      10.43319593      18.77779374 
H      29.28392685      12.22159110      18.67138873 
H      24.71294877      12.39161680      29.17412034 
H      25.71840781      13.02915743      30.51867770 
H      26.04764504      13.53175203      28.81980978 
H      24.80713615      21.39837959      32.57535654 
H      24.88352465      19.74126790      31.90368986 
H      23.90977841      20.06982797      33.37714901 
H      27.26859938      30.19691703      24.89418919 
H      26.50742861      29.21491941      26.17639725 
H      26.10665458      30.95601380      26.02732026 
H      29.86378584      27.02297811      13.89012820 
H      30.61723518      25.41201635      14.07756157 
H      29.99780500      26.27479729      15.51217686 
H      30.11485111      13.61392725      13.98129402 
H      30.20198221      13.18435282      15.71944667 
H      30.24178444      14.90464853      15.22581888 
H      26.31446793       9.51571363      25.91109223 
H      26.59765363      10.92543223      26.98139334 
H      27.01920338      11.02797040      25.24472507 
H      18.45926374      16.20125892      31.58218818 
H      18.65472000      17.97575021      31.70731114 
H      19.63587312      16.88778966      32.74874099 
H      19.49851918      29.92028780      27.51967695 
H      20.29967136      30.25944277      25.95635746 
H      21.06919967      30.77883745      27.49233028 
H      25.65939557      29.56316167      13.57709593 
H      24.00112957      29.96445858      14.10990320 
H      24.34238478      28.36117720      13.40066259 
H      25.28425557      16.75495627      10.08704331 
H      25.18440780      15.31286206      11.14302482 
H      26.73324080      15.72607110      10.32581639 
H      22.08368998       8.33609082      20.56169229 
H      21.74754756       8.79369743      22.25921343 
H      23.22161857       7.84597274      21.85855728 
H      21.74809766       8.34442321      24.89328308 
H      21.32354278       8.36046637      26.63453963 
H      22.64763207       9.40981272      26.01765870 
H      19.60417628      11.80964866      30.68260693 
H      18.32829000      12.51727014      29.63297817 
H      19.09157861      13.50835914      30.92563764 
H      19.09297505      20.20551043      33.11261748 
H      19.06677202      21.91319870      33.65626002 
H      20.48286620      21.27515414      32.74877354 
H      19.38646299      28.01761404      30.03867786 
H      19.33861039      27.19496637      31.63156223 
H      18.12258592      26.78075702      30.37428165 
H      22.26184048      33.07416383      23.56257116 
H      23.16891573      31.62000858      24.09933217 
H      21.64820971      32.08655211      24.92283857 
H      23.70286679      31.46076527      16.68154045 
H      23.78181928      32.72014295      17.95440030 
H      22.24737036      31.83465811      17.67031331 
H      26.45934544      26.45233574      10.36135378 
H      26.98233078      26.29046447      12.07733812 
H      25.82342428      27.57813570      11.60141069 
H      26.64961918      21.14127345       8.85230024 
H      24.91134045      20.89369238       9.23607623 
H      26.07684970      19.53041243       9.38792279 
H      26.10478581      12.91917075      11.69941788 
H      25.85820009      11.20810513      12.16794963 
H      26.66378789      12.34716165      13.29738223 
H      24.07366702       8.06747717      16.49775698 
H      22.46954667       8.86909888      16.50634490 
H      23.17068333       8.23331494      18.03364323 
H       8.82385790      24.01010479      14.52767681 
H       9.40063797      23.90881522      16.23211949 
H       8.82686798      22.44291479      15.38934249 
H       9.49751190      19.37704628      12.65829953 
H      10.46179371      20.74469587      13.32370449 
H       9.42875608      19.77061991      14.40523679 
H       8.41851329      16.06309019      16.05401452 
H       9.85148905      16.82248594      15.27318495 
H       8.79915660      17.78925268      16.34451634 
H       8.00451944      19.05918913      18.71422876 
H       7.08220053      18.36866400      20.08594193 
H       8.50904689      17.49787046      19.42009611 
H       8.24673533      21.88844335      18.08241695 
H       7.45215590      23.17382364      19.04221813 
H       8.36389318      21.86252247      19.86378245 
H      12.44671317      28.71156978      12.00636098 
H      11.00427308      28.05540515      12.84587878 
H      11.84082912      27.07379976      11.60201044 
H       7.74796311      26.78361836      22.65882402 
H       8.60669483      27.79216477      21.45607615 
H       8.68334185      28.21368901      23.19381828 
H       6.89397223      16.82872309      24.98816483 
H       7.35465171      18.46462910      25.55032824 
H       7.63676392      17.04669205      26.60362228 
H       9.83219188      11.20951825      16.10443151 
H       9.77104597      11.20216093      17.89562130 
H      10.70751069       9.94489401      17.02686005 
H      13.64941506      17.35356517       7.91492094 
H      12.27353955      18.31728673       8.54302774 
H      12.57565459      16.66783902       9.17560625 
H      11.25086129      27.23868707      16.65169832 
H      10.64695807      27.20988632      18.34862751 
H      10.73402603      25.69093719      17.39791366 
H       8.88979887      23.17698050      23.28763355 
H       8.62474185      21.42328385      23.60138830 
H       9.22905604      21.96297262      22.00824186 
H       9.77983705      14.09542196      20.45540940 
H       9.72968127      15.88146209      20.34972148 
H       9.41233574      15.08022290      21.92141227 
H      12.19492269      15.20819241      12.78024243 
H      11.64976421      15.81164145      14.37411936 
H      11.87715428      14.05092602      14.12501001 
H      12.95302516      21.52332758      10.82563002 
H      12.67969411      23.20557797      11.41316232 
H      12.27169286      21.81488248      12.45947626 
H      15.55623846      25.54593252       9.20555002 
H      15.46569087      24.05189763      10.20945463 
H      16.96207427      24.43206192       9.30027637 
H      13.66672565      30.70128685      19.52727805 
H      12.00238096      30.66241057      20.19183871 
H      12.60413516      29.30766808      19.17445298 
H      10.94308630      22.63812473      28.06197190 
H       9.48113464      21.59689916      28.05216982 
H      10.23842174      22.10910801      26.50417883 
H      11.45233026      10.40018925      22.13609854 
H      11.62275304      12.19103241      22.23333003 
H      12.47694789      11.14563030      23.40909907 
H      15.20309384      13.06792175      10.35375339 
H      14.87002377      13.55066914      12.05775400 
H      16.20206152      12.41045990      11.69334883 
H      17.08119426      20.08500082       7.53340829 
H      16.16777477      21.41597251       8.31204565 
H      16.07781024      19.76139302       8.98852424 
H      14.81805550      30.87492054      14.91058062 
H      13.71484761      30.31534426      16.20746487 
H      14.24484286      29.17101020      14.93609952 
H      10.25741683      25.16155368      26.60726651 
H      10.84278930      26.14096446      25.22659108 
H      10.81400390      26.84325506      26.88114763 
H      10.66224347      13.28249294      25.12078073 
H      10.67961123      15.00471734      25.60725250 
H      10.71876482      13.71728215      26.85848886 
H      14.32233154      10.92406491      13.89150935 
H      13.88590109      11.02196880      15.62502191 
H      14.58686696       9.50818727      14.95849297 
H      21.32821416      16.93614491       8.16910747 
H      22.49548827      16.22757146       9.33189790 
H      22.30468378      18.00469444       9.23423242 
H      19.87156156      30.55374283      13.18497724 
H      21.37520526      29.57625622      13.17712667 
H      20.68759390      30.13654183      14.73181172 
H      17.01831158      29.95861931      26.43537065 
H      16.50072449      28.53320896      27.38627277 
H      15.31799216      29.82807955      26.99100951 
H      14.06296155      15.81957585      30.55964398 
H      15.53128751      16.81524757      30.82313618 
H      15.62441210      15.34660138      29.80462382 
H      17.71502459       7.80694690      18.99787125 
H      18.84537203       8.29383752      20.30222810 
H      19.17800461       8.77716625      18.61182032 
H      19.62129936       8.37922852      14.23233076 
H      18.28801368       9.40952929      14.86259581 
H      19.20239214       8.34330420      15.97483663 
H      21.68685512      13.56873204       9.91637835 
H      21.21565974      11.86194326      10.18562223 
H      22.52866463      12.59517304      11.17395757 
H      21.91715864      21.92213311       7.32044562 
H      20.49977757      21.26043021       8.20791175 
H      21.91348976      20.21473780       7.86482723 
H      21.54615334      27.07812731       9.10076797 
H      22.71429094      26.80384104      10.43536401 
H      21.42033976      28.03703677      10.60609118 
H      19.31475981      32.03223242      16.04354097 
H      18.70728791      33.05345457      17.38569916 
H      17.75749722      31.62827976      16.83309747 
H      17.18575887      32.76895158      22.77859627 
H      18.64769004      31.81603764      23.21544104 
H      17.10615641      31.58099603      24.11721220 
H      14.93922866      27.49081681      29.27536644 
H      14.39128490      26.42609325      30.60918172 
H      13.79341291      26.15731198      28.93392457 
H      14.93518812      19.45840792      31.62308842 
H      14.31258014      21.05038029      32.15705736 
H      16.05290477      20.86237278      31.74998268 
H      14.94673289      11.18415142      28.65640256 
H      14.15497636      12.45193377      27.65607224 
H      14.88862336      12.88034777      29.23236043 
H      17.71468439       8.24627779      22.85233397 
H      16.78767394       8.08134101      24.37588025 
H      18.39657680       8.88248071      24.39079660 
