646
Properties=species:S:1:pos:R:3 i=122 optimized=T E=-10152.6640498431 pbc="F F F" jobid=246_80-Ag-60_2-000006-PBE
Ag      21.88916012      20.22991026      20.87746659 
Ag      24.71787636      20.22841658      21.79478787 
Au      20.45037306      22.75339412      20.43167371 
Ag      19.72626228      21.00937228      22.70507597 
Au      20.00786262      18.21804483      21.81577755 
Ag      21.12169083      23.51545254      23.14908426 
Ag      20.34463371      21.78972250      25.42787993 
Ag      20.67849731      18.98659678      24.57833742 
Au      20.92137485      16.18937148      23.65982523 
Au      21.87747720      16.12230189      20.90184458 
Au      22.75529287      16.18219423      18.11804337 
Ag      23.09068721      18.92424215      17.20169186 
Ag      23.29724760      21.72053374      16.31875972 
Ag      22.59727416      23.46624819      18.57281913 
Ag      21.83963459      25.22695294      20.84962495 
Ag      23.31346888      22.71607780      21.32428906 
Au      22.58260281      21.01684506      23.62615721 
Au      22.87428599      18.21759529      22.76546886 
Ag      23.80473149      18.19104193      19.96147646 
Ag      24.07406992      20.96015344      19.06309623 
Au      20.91305275      14.02080022      19.02905422 
Au      21.83295481      14.08888738      16.22145033 
Au      22.18311473      16.88850641      15.25550306 
Au      22.41703908      19.71784989      14.31404869 
Ag      22.68093695      22.54577448      13.51024966 
Ag      21.97634389      24.32091965      15.79492003 
Ag      21.20735417      26.07286678      18.08793391 
Ag      20.49299959      27.83291954      20.43374784 
Au      25.36708911      22.42321567      14.49686245 
Au      24.73483483      24.25875891      16.70534766 
Au      23.99951249      25.93998664      18.95809273 
Au      23.23428237      27.71373983      21.30955360 
Au      22.55626811      26.04923374      23.59939953 
Ag      21.73902271      24.31973582      25.84587626 
Ag      20.90092285      22.63102883      28.11800954 
Au      21.28633953      19.76177656      27.33936657 
Ag      21.58098535      16.99817811      26.45151125 
Au      21.82236574      14.18062088      25.52680631 
Ag      22.86127597      14.03430928      22.81981917 
Au      23.75144720      14.09400196      20.02730460 
Au      24.60569166      14.09707725      17.13786746 
Au      24.98212629      16.88053349      16.23414189 
Au      25.19690587      19.64028561      15.37483227 
Au      23.62068056      19.00126123      25.59682146 
Au      23.75155465      16.21274823      24.66209187 
Au      24.81627508      16.16556278      21.85923361 
Ag      25.60767439      16.13382071      19.03293725 
Ag      26.04828710      18.92242029      18.12388771 
Ag      26.19817390      21.72064352      17.22825927 
Au      25.56641251      23.50231738      19.48861500 
Au      24.70498880      25.20011471      21.71673185 
Ag      24.03469333      23.54726951      24.09161877 
Ag      23.16527468      21.83072272      26.32615179 
Ag      26.19237625      22.77752073      22.25609518 
Au      25.44011385      21.06561291      24.57530594 
Ag      25.72118479      18.18997921      23.73324643 
Ag      26.66872519      18.15886323      20.87098595 
Au      26.91329121      20.99271497      19.96621247 
Au      27.56817066      20.22405349      22.73594399 
Ag      27.54193710      15.33384916      21.24579578 
Ag      28.51722388      17.39605055      18.63527193 
Au      28.78551417      20.00571745      17.68926296 
Ag      28.36502743      23.28162292      18.71824630 
Ag      27.66256893      25.06490113      20.83541366 
Ag      26.60737968      24.89069283      24.23324204 
Ag      25.86197324      23.34497205      26.49516399 
Au      25.55784500      20.13811216      27.43245281 
Ag      25.82159235      17.40207604      26.73274029 
Ag      26.68284616      15.44723988      23.95716264 
Ag      28.50410236      17.55627342      23.05525496 
Ag      29.26338733      19.48143396      20.58559896 
Ag      28.94332302      22.40680366      21.48052560 
Ag      27.98522948      22.37422506      24.57956253 
Ag      27.64962229      19.43557962      25.47887130 
Au      25.57415723      13.37698419      22.20717370 
Ag      26.37843343      13.28891803      19.26019779 
Au      27.26418173      15.21530154      16.95107275 
Ag      27.59091592      18.00359651      15.91236280 
Ag      27.74598763      20.84978505      14.92728410 
Au      27.49835804      23.81543814      15.85207996 
Ag      26.81897928      25.68494019      18.07529139 
Ag      25.94374360      27.48361692      20.35968607 
Ag      25.22966527      27.41653176      23.42886580 
Au      24.33082771      25.77335101      25.84013794 
Au      23.41875548      24.00665875      28.12229023 
Au      23.19606982      21.14298299      29.04857241 
Ag      23.51687556      18.24419731      28.34438122 
Ag      23.69346595      15.36492371      27.40250992 
Ag      24.67784825      13.55273948      25.12796527 
Au      24.42819359      11.54500007      15.43545936 
Au      24.06817470      14.82685391      14.35626914 
Ag      24.28241280      17.59563425      13.43809199 
Ag      24.54972112      20.39009067      12.58857314 
Ag      25.37594722      23.23717708      11.58319514 
Ag      24.21892136      25.05112204      14.01732665 
Ag      23.38560577      26.83842854      16.21291942 
Au      22.65528571      28.46710879      18.55350586 
Ag      22.31358579      30.58536981      20.84321152 
Ag      21.26828864      28.59042055      23.26877372 
Au      20.29090512      26.81770617      25.36997338 
Ag      19.50891748      25.15631651      27.64100835 
Au      19.30799840      23.54389086      30.47122052 
Ag      19.19876901      20.49508639      29.15434326 
Ag      19.39623900      17.69312581      28.28802151 
Ag      19.72020955      14.89031339      27.43871563 
Ag      20.54111467      11.89032006      27.00270098 
Ag      21.00391074      11.97891797      23.76601352 
Ag      21.86433543      11.96719670      20.94545753 
Au      22.77138967      12.06242274      18.16810135 
Ag      29.42918836      14.31924360      23.35319774 
Au      31.44855199      18.48971238      18.32254919 
Au      30.60940438      24.99097643      20.13182221 
Ag      28.52440516      24.78324480      26.59303469 
Au      28.04970169      18.29143141      28.58197792 
Ag      28.80185362      27.61379636      19.04654751 
Ag      30.27389446      18.86916649      15.09682433 
Ag      27.98465090      11.85099464      21.61359929 
Ag      25.39901811      16.57764166      29.87782109 
Ag      25.88849699      26.05930793      28.30036123 
Ag      26.57338574      26.68591405      15.15053652 
Au      23.25162696      28.66076282      25.70222295 
Ag      21.52799081      18.95538164      30.52330918 
Ag      23.92563722      11.11165596      23.39491625 
Ag      26.94273022      15.82859296      13.84704001 
S      29.72557150      22.71757919      26.32607669 
S      29.44045568      18.17001170      26.69369437 
S      30.67210408      16.32553618      22.92618583 
S      31.71479585      19.82851298      20.23219536 
S      30.88389015      23.84127342      22.16133824 
S      27.82129184      27.00406550      27.19489396 
S      30.59534704      26.25876674      18.14562655 
S      31.45148806      17.17087862      16.37431055 
S      28.68873243      12.10184111      23.91286537 
S      26.86079988      18.35957071      30.61413635 
S      27.80133547      26.61025116      22.85865130 
S      29.86381781      22.17312729      17.05621371 
S      29.07541557      15.05916260      19.27701901 
S      26.65081629      15.02384860      26.42087441 
S      26.24291700      22.12022080      28.70737768 
S      24.08115622      25.61483507      29.84329645 
S      27.33616968      29.41009148      19.64649578 
S      29.52913604      20.27861870      13.29891407 
S      27.54165156      11.09528956      19.37904924 
S      23.98450874      14.65349173      29.75351885 
S      22.66160344      20.93166986      31.41929299 
S      24.90645175      29.70004694      24.38223504 
S      28.27953483      25.31601166      14.07596328 
S      28.07868050      13.99300032      14.99128906 
S      24.39448774      11.18716840      25.79055897 
S      20.25639271      16.89952204      30.47106676 
S      21.48684140      28.06123540      27.15533734 
S      25.11797401      28.53964666      15.63363097 
S      26.24941107      17.22200627      11.98132188 
S      23.30794255       9.99418279      21.33342435 
S      20.26502352      10.17500902      25.34039874 
S      20.78854150      13.24600076      28.97275387 
S      18.28002219      21.55383841      31.21026956 
S      20.32696637      25.60487738      29.98067175 
S      20.94273086      31.01341504      22.77875995 
S      23.87656648      30.54906439      18.99730152 
S      24.57470145      25.51234614      11.59808287 
S      26.48628518      21.13423099      11.23752331 
S      24.34181135      12.59155494      13.33145880 
S      24.41592735      10.38255514      17.48347899 
C      31.37812177      23.13207404      25.64804469 
C      30.86146439      19.27389838      27.05632820 
C      31.72601683      16.58162971      24.40733652 
C      32.73896841      18.87651894      21.41523604 
C      32.47582955      22.94377796      21.99079548 
C      28.94486703      27.52915308      28.55911087 
C      32.06976136      27.35737761      18.27232780 
C      33.17792701      17.25888855      15.73927322 
C      30.21954945      11.08066313      24.03950959 
C      27.95155295      17.52151348      31.83949528 
C      29.41903042      27.11321626      23.57720140 
C      31.63121940      22.30858936      17.53372201 
C      30.88349634      14.85619580      19.55183152 
C      28.27651333      14.50101788      27.10535406 
C      27.95165416      21.91151038      29.33850860 
C      24.74610395      24.55587510      31.18551152 
C      27.95739341      30.07620865      21.24196478 
C      30.60460864      21.76594983      13.37810506 
C      29.07358448      11.38206505      18.40741418 
C      25.11252182      13.21636169      29.54567619 
C      24.13282698      20.35295139      32.34783421 
C      26.28928331      30.09646782      25.52108443 
C      29.91473016      26.04909758      14.46244173 
C      29.88585041      14.19399885      14.76428033 
C      26.03874435      10.41206230      26.04639537 
C      18.89756434      17.19185782      31.67703385 
C      20.52783162      29.61972224      27.31969312 
C      24.67433368      29.16111913      13.95926245 
C      25.73114610      15.97818086      10.72833719 
C      22.20047035       8.63367557      21.88679733 
C      21.50225056       8.87876301      25.74571917 
C      19.54815750      12.65839650      30.19014753 
C      19.15449193      21.09722667      32.76033484 
C      19.26724099      26.86825535      30.78566066 
C      21.96440948      32.06143947      23.89289092 
C      23.43386783      31.81678796      17.75398557 
C      26.05515333      26.54445879      11.23821428 
C      26.21720041      20.62867385       9.49473565 
C      25.96313453      12.30570482      12.52414403 
C      23.51019610       8.81925641      17.17916155 
Au      19.01478786      20.22854489      19.97547274 
Ag      16.14739433      20.24214456      19.00660834 
Au      21.21303448      20.98960733      18.13735684 
Ag      20.92323797      18.19508566      19.01065252 
Ag      19.76224357      23.52157152      17.67803134 
Ag      20.54513251      21.79394984      15.40831968 
Au      20.27891177      18.98437861      16.24828084 
Ag      19.98184600      16.15307007      17.14797658 
Ag      19.06871068      16.14300492      19.91047815 
Au      18.15826496      16.19998782      22.73685085 
Ag      17.82648297      18.94028580      23.62900695 
Au      17.60151094      21.74062480      24.48029867 
Ag      18.25309246      23.50017872      22.23454415 
Ag      19.08123649      25.25452228      19.98838856 
Au      17.53362083      22.73431097      19.52053732 
Au      18.32455045      20.99927882      17.19201765 
Au      18.04976598      18.19204858      18.04829898 
Au      17.09748196      18.18393090      20.83285721 
Ag      16.80875103      20.97110830      21.74608611 
Ag      20.05453546      14.02523613      21.85894287 
Au      19.08500065      14.07127164      24.68318069 
Ag      18.76990976      16.85817735      25.55076836 
Au      18.48472528      19.70781812      26.45503068 
Ag      18.15555337      22.57192494      27.29317761 
Ag      18.88331884      24.30262223      25.00330150 
Ag      19.72533683      26.08278964      22.70333318 
Au      15.46742462      22.48055031      26.30738484 
Ag      16.08313641      24.28791235      24.08537176 
Ag      16.89997320      26.00877378      21.83467578 
Ag      17.76549119      27.74559161      19.62212671 
Au      18.42260489      26.08077141      17.24078964 
Ag      19.15531664      24.36082269      14.97812463 
Ag      19.95215192      22.61324612      12.73546874 
Ag      19.63327270      19.76415602      13.49028323 
Au      19.35137553      16.96744403      14.40323514 
Ag      19.14066396      14.04731998      15.25623545 
Ag      18.15445307      14.02172429      18.01179129 
Au      17.27871633      14.11076152      20.79630107 
Au      16.39121483      14.12306609      23.70661165 
Ag      15.93305619      16.81901998      24.61541111 
Ag      15.71891121      19.62665847      25.44925396 
Ag      17.33593105      18.98564547      15.29653512 
Ag      17.19626949      16.19484629      16.19184249 
Ag      16.15326243      16.10680690      18.93822533 
Ag      15.36735273      16.08858003      21.78734423 
Au      14.94181698      18.87264262      22.71589108 
Ag      14.75848557      21.65450156      23.61564695 
Ag      15.35864316      23.54304445      21.35049560 
Ag      16.25575184      25.23457602      19.07706239 
Au      16.84173228      23.49950435      16.76734237 
Ag      17.69698934      21.85071556      14.54286040 
Ag      14.63281049      22.77481382      18.57888427 
Au      15.40116132      21.03065238      16.26260591 
Ag      15.19775836      18.17293057      17.13193141 
Ag      14.26329001      18.13456797      19.94158860 
Ag      13.98277437      20.97526137      20.86418116 
Ag      13.30719417      20.20597484      18.13037807 
Ag      13.42119844      15.23766503      19.57177824 
Au      12.55102170      17.30805043      22.18058107 
Ag      12.26032140      19.94990389      23.13210859 
Au      12.54069804      23.27660603      22.06469776 
Au      13.16279922      24.93405445      19.99412327 
Au      14.22304278      24.94600521      16.59069218 
Au      14.86229864      23.39552577      14.41130355 
Au      15.37273581      20.05349363      13.42526205 
Ag      15.07847816      17.32439560      14.20133159 
Ag      14.25675004      15.40637585      16.84405756 
Ag      12.44336198      17.49657717      17.81341461 
Au      11.66132753      19.38361977      20.26124816 
Ag      11.85297887      22.30499029      19.37975405 
Ag      12.81200696      22.36136594      16.31981524 
Au      13.26279036      19.43702175      15.38916655 
Au      15.42078843      13.35997346      18.58738712 
Au      14.70995404      13.25989552      21.56553366 
Ag      13.62264331      15.09052889      23.81528167 
Ag      13.33307589      17.93931950      24.92148291 
Ag      13.18713388      20.77787682      25.94286341 
Ag      13.28432951      23.73559685      24.89757405 
Ag      14.07115080      25.75450656      22.69016660 
Ag      14.95826185      27.44530260      20.32302635 
Au      15.90387275      27.51784164      17.49189695 
Au      16.57974178      25.76617150      15.04161052 
Au      17.46418074      23.99413158      12.71614807 
Au      17.68861690      21.06597254      11.87750441 
Au      17.40235588      18.17955432      12.56285253 
Au      17.27658022      15.33122727      13.44842390 
Au      16.36526771      13.58491122      15.77559820 
Ag      16.80454426      11.72839814      25.51528647 
Ag      16.87837260      14.80128416      26.50406581 
Au      16.68462336      17.60086851      27.33730417 
Ag      16.33723650      20.39753739      28.20194855 
Au      15.39219182      23.33355397      29.24906822 
Ag      16.66142857      25.11769241      26.77490255 
Ag      17.58802457      26.80153028      24.56750585 
Ag      18.38459329      28.55540992      22.33124892 
Ag      18.57955528      30.61464722      19.93853288 
Ag      19.79032669      28.59296951      17.63394352 
Au      20.64345763      26.86361699      15.39888993 
Ag      21.33142729      25.15712582      13.15558451 
Ag      21.67360226      23.60896442      10.47475826 
Ag      21.68175740      20.49590537      11.59830944 
Ag      21.51143961      17.69630330      12.50314010 
Au      21.26713132      14.93588727      13.45132913 
Au      20.38645620      11.83814262      13.62895548 
Au      19.99323088      11.93290830      17.14803241 
Au      19.15737835      11.99603120      19.93556578 
Au      18.25063110      12.02130763      22.70963931 
Ag      11.33707581      14.48022502      17.54110382 
Ag       9.73834981      18.34796142      22.76169642 
Au      10.16486218      24.92968575      20.85479267 
Au      12.11726512      24.97475483      14.23521224 
Ag      12.98969931      18.41531255      12.31966824 
Au      12.01970921      27.74734503      22.02376671 
Ag      10.66439349      18.61066130      25.96730222 
Ag      12.87027053      12.05168433      19.26205447 
Ag      15.46411908      16.45253437      11.11629925 
Ag      14.97113309      26.01957677      12.61107508 
Au      14.31094386      26.72943130      25.58232422 
Ag      17.75714660      28.51065954      15.27302136 
Au      19.47444316      18.92738233      10.08045076 
Au      16.95854346      10.84689870      17.51363346 
Ag      13.98452339      15.72714308      26.88382298 
S      11.01544155      22.94776461      14.66095968 
S      11.43666283      18.36926374      14.16991977 
S      10.14974391      16.51492444      17.97374121 
S       9.29761295      19.81282841      20.89731865 
S       9.79554841      23.69201561      18.89744500 
S      13.01611149      27.06028105      13.62398527 
S      10.30332257      26.30097905      22.77608096 
S       9.54705639      16.90937229      24.68675344 
S      11.96015371      12.22091676      17.02709676 
S      14.10694966      18.23962163      10.20028767 
S      13.05366692      26.48870181      18.09057906 
S      11.26863260      22.15369459      23.85844299 
S      11.81028880      15.04508807      21.54792866 
S      13.97659617      15.05438883      14.38962857 
S      14.63275633      22.13984785      12.30139675 
S      16.74197282      25.58598272      11.01199415 
S      13.63610730      29.30672903      21.36602797 
S      11.48732819      20.11478259      27.62957955 
S      13.44312374      11.18440167      21.44611155 
S      16.69824747      14.36972150      11.28615869 
S      18.27420215      20.88727240       9.50187176 
S      15.99088880      29.74125276      16.49077417 
S      12.76338857      25.35389237      26.72482779 
S      13.02195127      13.76944943      25.83226578 
S      16.35349334      11.17317638      15.24546931 
S      20.77682135      16.97480772      10.23638545 
S      19.65146440      28.38222664      13.74093120 
S      15.72020162      28.43986547      24.77446224 
S      14.67992276      17.19776729      28.69176673 
S      17.60750044      10.10103855      19.65558806 
S      20.58916405      10.29757655      15.38671224 
S      20.31545546      13.36203951      11.83469271 
S      22.68525155      21.60628373       9.61211290 
S      20.50559116      25.66978396      10.86578731 
S      19.92130756      31.05403475      17.99999263 
S      17.01786765      30.56529173      21.75800967 
S      16.25930954      25.52823391      29.22112619 
S      14.40704015      21.21944393      29.55939927 
S      16.81599698      12.63630653      27.75022693 
S      16.52875425      10.45382648      23.47683850 
C       9.37288182      23.35863483      15.35968022 
C      10.06615569      19.54919252      13.87329338 
C       9.10338485      16.83803345      16.50098942 
C       8.13841195      18.93771392      19.77746407 
C       8.22208968      22.78608668      19.14331248 
C      11.99922271      27.61733019      12.19412708 
C       8.79838737      27.35725653      22.71946952 
C       7.79598363      17.01064501      25.25566887 
C      10.39103356      11.25509819      17.10016685 
C      12.93291353      17.37696520       9.07052953 
C      11.32796682      26.72491852      17.51135742 
C       9.47170194      22.44159405      23.59501972 
C       9.98957696      15.00607115      21.31471829 
C      12.19710189      14.87129458      13.97014569 
C      12.87717277      21.95695021      11.81761808 
C      16.02121590      24.52311649       9.70139212 
C      12.94238551      30.08837539      19.85308127 
C      10.35464385      21.56303105      27.62653059 
C      12.00721168      11.44528796      22.55578518 
C      15.48600989      13.04552575      11.65688673 
C      16.81905494      20.31812951       8.54324164 
C      14.59338843      29.99690370      15.33368083 
C      11.12606558      26.14648471      26.48088685 
C      11.21655476      13.81527232      26.16557953 
C      14.64715625      10.53735834      15.05348137 
C      22.17708008      17.31291488       9.09386763 
C      20.53280303      29.98073669      13.94973265 
C      16.12424533      29.40746293      26.28573859 
C      15.21079205      16.02634570      30.00512301 
C      18.70121611       8.67202593      19.28747602 
C      19.33319958       8.99231062      15.10615604 
C      21.67380490      12.85191756      10.71364817 
C      21.78602658      21.26252080       8.04451884 
C      21.55027025      27.02290035      10.19876309 
C      18.86016859      32.07715602      16.89966805 
C      17.44249936      31.97784994      22.85093522 
C      14.83330756      26.63582271      29.55410831 
C      14.66755950      20.79962467      31.32641678 
C      15.18528608      12.21244833      28.48461030 
C      17.31515101       8.81691719      23.71825913 
H      31.87015301      22.19551900      25.35819765 
H      31.96731741      23.62121908      26.43200414 
H      31.30058216      23.78676185      24.77392797 
H      31.50846117      19.26395130      26.17039217 
H      31.41364250      18.87770262      27.91537978 
H      30.53165308      20.30009561      27.25068640 
H      32.24222258      17.54296493      24.29384687 
H      32.46953341      15.77815049      24.45489922 
H      31.12893689      16.59803532      25.32486967 
H      33.74655765      18.76113066      21.00101787 
H      32.29531078      17.89701197      21.62561501 
H      32.78924976      19.46121451      22.34222302 
H      33.28981695      23.67268491      21.91270044 
H      32.47215410      22.27899340      21.12101311 
H      32.60819402      22.34648440      22.90140123 
H      29.92054636      27.78372773      28.12916043 
H      29.07095051      26.74088709      29.30666460 
H      28.51480914      28.41744660      29.03638921 
H      31.99472881      28.10714638      17.47570250 
H      32.97072647      26.75168097      18.12235716 
H      32.11832883      27.85731944      19.24368979 
H      33.18751548      16.80573158      14.74072139 
H      33.82693683      16.68401503      16.40960334 
H      33.53392796      18.29094695      15.67689497 
H      29.92912072      10.02361257      24.02887703 
H      30.71571459      11.31142644      24.98934011 
H      30.90739106      11.27600902      23.21193230 
H      28.79608857      18.18307476      32.06368082 
H      28.32400461      16.56473389      31.46307390 
H      27.36436755      17.35552836      32.75049301 
H      29.84956068      27.90492697      22.95294769 
H      30.09566676      26.25174585      23.59448406 
H      29.24619652      27.48154961      24.59504766 
H      32.21988044      21.64139226      16.89272870 
H      31.78339715      22.03579695      18.58235033 
H      31.93063902      23.35134228      17.37284122 
H      31.38986188      15.01951908      18.59368463 
H      31.06426271      13.83542180      19.90949452 
H      31.24221398      15.57509822      20.29543529 
H      28.58293601      13.58255223      26.59071078 
H      28.16137640      14.31529853      28.17959766 
H      29.01665833      15.29260423      26.94650670 
H      28.28918656      22.88584378      29.71309295 
H      28.63262376      21.57059678      28.55332847 
H      27.92385957      21.18097398      30.15523573 
H      23.89376811      24.10288908      31.70700625 
H      25.31234086      25.19132045      31.87622157 
H      25.38812155      23.76363172      30.78358921 
H      28.90242277      30.60408340      21.07386486 
H      28.09339661      29.27965143      21.98186406 
H      27.20327223      30.78090446      21.61379731 
H      31.59501888      21.51440446      12.98301335 
H      30.68958658      22.14156234      14.40505086 
H      30.14120152      22.53886090      12.75252508 
H      28.82541855      11.22633714      17.35021322 
H      29.83837538      10.66120028      18.71657698 
H      29.44225530      12.40558699      18.53653598 
H      24.48916172      12.35569022      29.27259336 
H      25.62402776      13.01872548      30.49404471 
H      25.84433106      13.39076649      28.74927809 
H      24.78654535      21.21662715      32.51822672 
H      24.68748080      19.58720639      31.79676004 
H      23.79493713      19.95072268      33.31004778 
H      27.11131422      30.47833368      24.90308852 
H      26.62818944      29.21063920      26.06984277 
H      25.96688032      30.87481201      26.22134692 
H      30.01826416      26.98614798      13.90336421 
H      30.68554496      25.33988761      14.13740347 
H      30.02652255      26.23710894      15.53536620 
H      30.13677154      13.90905273      13.73584495 
H      30.39439153      13.52264106      15.46654166 
H      30.20617357      15.22265281      14.95566746 
H      25.94878212       9.32974778      25.89885038 
H      26.34880441      10.61302913      27.07903349 
H      26.78885007      10.81923078      25.35888078 
H      18.20488915      16.34411756      31.61114695 
H      18.35530579      18.11954452      31.46430487 
H      19.32201699      17.23366742      32.68674606 
H      19.60235452      29.38142119      27.85809758 
H      20.28469569      30.04439268      26.34004532 
H      21.12075114      30.33383518      27.90284607 
H      25.56455396      29.59334352      13.48839901 
H      23.91687105      29.94413087      14.08591869 
H      24.26787122      28.36521767      13.32542028 
H      25.28991956      16.51748633       9.88145916 
H      24.99411292      15.27800806      11.13566755 
H      26.61491578      15.42882139      10.38382642 
H      21.74951631       8.18105869      20.99544309 
H      21.40714392       9.00059763      22.54764020 
H      22.79915033       7.88009202      22.41131749 
H      21.51481670       8.14655319      24.92990135 
H      21.19067103       8.38355305      26.67231766 
H      22.50119833       9.31186646      25.86916741 
H      19.91091001      11.72583049      30.63751352 
H      18.57137883      12.49239423      29.72176693 
H      19.46498534      13.42739850      30.96786226 
H      18.83459822      20.08659715      33.04047931 
H      18.85409254      21.80458554      33.54160166 
H      20.24141047      21.11807323      32.63021367 
H      19.60356135      27.84587424      30.41899504 
H      19.41516850      26.81649026      31.87026946 
H      18.21001307      26.71618911      30.54130503 
H      22.04650782      33.05913093      23.44694684 
H      22.96089635      31.63302485      24.04368066 
H      21.45127332      32.13625143      24.85891125 
H      23.92822479      31.54077756      16.81459634 
H      23.81932545      32.78198300      18.10387009 
H      22.34888895      31.87485676      17.61220111 
H      26.30820937      26.42049634      10.17912625 
H      26.90671693      26.25358530      11.86241241 
H      25.80080855      27.59333937      11.43056268 
H      26.93028748      21.16928333       8.86168717 
H      25.19301876      20.84150932       9.16882535 
H      26.41505039      19.55167115       9.43337733 
H      26.00079390      12.92143999      11.61774633 
H      26.01438687      11.24537401      12.25052964 
H      26.79306255      12.56882174      13.18786902 
H      24.18543570       8.13037347      16.65795901 
H      22.60778214       8.98820068      16.58164782 
H      23.24840138       8.40803991      18.16178241 
H       8.79744054      23.91148860      14.60903677 
H       9.45568946      23.94048620      16.28315827 
H       8.86855147      22.40834841      15.57604202 
H       9.44232657      19.14706360      13.06646588 
H      10.42929708      20.54690997      13.60750543 
H       9.47439149      19.61701755      14.79432367 
H       8.36478175      16.03514648      16.40123209 
H       9.70776434      16.91264854      15.59096362 
H       8.58217122      17.78939962      16.66536847 
H       8.01496029      19.54854136      18.87472535 
H       7.17174334      18.83751537      20.28417450 
H       8.52637257      17.95241131      19.49721283 
H       8.04111714      22.20422110      18.23067526 
H       7.40905743      23.50721007      19.28022029 
H       8.28506368      22.10631528      19.99972499 
H      12.49110451      28.49538559      11.75881726 
H      11.00387828      27.89698292      12.55763749 
H      11.90772016      26.83545737      11.43512324 
H       7.93049004      26.71967427      22.92350185 
H       8.68459208      27.83808918      21.74401719 
H       8.89112017      28.11870920      23.50266063 
H       7.17945200      16.40569478      24.58064045 
H       7.42779617      18.04039895      25.25780559 
H       7.73519331      16.59877573      26.26968351 
H       9.81937234      11.44982459      16.18532341 
H       9.78694409      11.52540535      17.97086106 
H      10.64448810      10.18978424      17.15072689 
H      13.48796917      17.04373760       8.18585111 
H      12.15707739      18.08883537       8.76557682 
H      12.46488182      16.51330247       9.55108850 
H      11.37303765      27.28868208      16.57207503 
H      10.78794437      27.29039622      18.28012546 
H      10.83644990      25.76096422      17.34848307 
H       9.27491669      23.51497507      23.69156691 
H       8.92833294      21.88168272      24.36586721 
H       9.17655766      22.08782958      22.60153187 
H       9.72334487      14.00262938      20.95987400 
H       9.67692711      15.74824577      20.57300945 
H       9.51578316      15.20288034      22.28380705 
H      12.09057338      14.91883727      12.87959166 
H      11.59435907      15.66253892      14.42631214 
H      11.86834717      13.89134778      14.33727646 
H      12.85024167      21.31318817      10.92932370 
H      12.47602427      22.95053567      11.58285658 
H      12.28578927      21.51105246      12.62238560 
H      15.42152096      25.15541401       9.03632953 
H      15.39963727      23.72908407      10.13068104 
H      16.85021833      24.07547389       9.13944780 
H      13.74494997      30.70338427      19.42658408 
H      12.09373894      30.72394776      20.12793606 
H      12.63499813      29.33976353      19.11521933 
H      10.80912985      22.32948869      28.26650217 
H       9.38488270      21.26623629      28.04081005 
H      10.22368963      21.97239480      26.61908830 
H      11.26861536      10.66206208      22.34924430 
H      11.56360221      12.43554845      22.40581802 
H      12.36260691      11.36327062      23.59046664 
H      14.97085326      12.78238282      10.72574721 
H      14.76434378      13.37604583      12.41314690 
H      16.04054475      12.17742163      12.03404913 
H      17.16782858      19.93791457       7.57627813 
H      16.17434663      21.19135324       8.38577091 
H      16.25732659      19.54374042       9.07615980 
H      14.86493753      30.80436051      14.64332095 
H      13.71447080      30.29485994      15.91773041 
H      14.36011295      29.08854580      14.76897019 
H      10.38021757      25.48006964      26.93170328 
H      10.89893462      26.28093102      25.41813525 
H      11.11045959      27.11293928      26.99648717 
H      10.75482094      12.99960009      25.59594351 
H      10.76998401      14.76620715      25.85489441 
H      11.04451957      13.65324106      27.23547248 
H      14.31362289      10.80928309      14.04448715 
H      13.96589816      10.97442043      15.79140272 
H      14.66718041       9.44617654      15.15351237 
H      21.80055328      17.34224097       8.06528413 
H      22.88776512      16.48409177       9.19854133 
H      22.67942881      18.25563001       9.33768947 
H      19.92580484      30.76915937      13.48901828 
H      21.49530684      29.91037281      13.42921234 
H      20.70500033      30.21358453      15.00662556 
H      16.89989287      30.13230373      26.00927531 
H      16.49696192      28.76271266      27.08838874 
H      15.22640252      29.93974819      26.61931980 
H      14.31384933      15.57035457      30.44072857 
H      15.74253640      16.59644100      30.77609110 
H      15.86899994      15.24658553      29.60569215 
H      18.08892268       7.85596814      18.88671314 
H      19.15990914       8.35967998      20.23372717 
H      19.48482476       8.94534554      18.57328024 
H      19.65585813       8.40030502      14.24174370 
H      18.34260447       9.42197881      14.92689472 
H      19.30517615       8.35596063      15.99852344 
H      21.83719831      13.68023668      10.01343461 
H      21.34634490      11.96289175      10.16193214 
H      22.59191774      12.63488830      11.27041294 
H      22.13828017      21.97218860       7.28728240 
H      20.70362069      21.35852822       8.17455523 
H      22.02289798      20.24060780       7.72617224 
H      21.39042146      27.08621835       9.11624989 
H      22.61173239      26.85097581      10.41003192 
H      21.21994449      27.95427926      10.67448990 
H      19.36064720      32.16668785      15.92831658 
H      18.76043988      33.07188720      17.34855732 
H      17.87177989      31.62713012      16.76084577 
H      17.13095795      32.90787427      22.36199662 
H      18.51757308      32.00824721      23.06113802 
H      16.87920262      31.85368422      23.78376622 
H      15.16788383      27.66727974      29.39059839 
H      14.53368332      26.51050484      30.60069701 
H      13.99340776      26.41015523      28.88849178 
H      14.41777810      19.73754316      31.43933178 
H      13.98698679      21.40332998      31.93737186 
H      15.70453621      20.97776924      31.63111328 
H      15.16821552      11.13507537      28.68478906 
H      14.36407360      12.48213588      27.81113419 
H      15.07969597      12.75739798      29.43020550 
H      17.46604972       8.36888908      22.72876083 
H      16.62537717       8.19400172      24.30032274 
H      18.27207395       8.90733597      24.24555146 
