699
Properties=species:S:1:pos:R:3 i=71 optimized=T E=-11498.1256415419 pbc="F F F" jobid=279_84-Ag-69_9-000010-PBE
Au      33.13508676      25.38824500      26.12221619 
Ag      31.93888027      29.31414148      21.61625299 
Ag      34.23443199      28.23423720      25.58501322 
Ag      29.82762678      15.04187034      19.69928233 
Ag      33.83805519      19.56884236      23.76094584 
Ag      27.27715310      23.31620320      13.30404711 
Ag      18.38316017      33.14904923      28.05996708 
Au      28.53389829      30.78363433      18.16364195 
Ag      24.94893079      21.28700226      23.24844869 
Au      26.28824885      23.27005464      24.94067483 
Au      28.20531349      25.12764686      23.65302739 
Ag      23.78881780      21.59467591      28.99638189 
Ag      23.35088795      27.89236920      26.98735222 
Au      26.89147019      23.11076105      22.01019692 
Ag      22.40964425      19.56878188      27.36570782 
Au      27.21476964      21.13575875      26.71270035 
Ag      22.06193776      21.53858900      22.72780237 
Au      21.03494505      23.59184345      20.85774306 
Ag      27.62190947      25.28525807      26.58419363 
Ag      19.97703104      24.02148713      26.67569945 
Ag      25.50298335      21.12485046      20.35349144 
Ag      24.26524249      25.73933201      28.80565050 
Ag      23.84766938      27.70482769      24.08966468 
Ag      26.17328648      27.61188602      27.59214641 
Ag      20.93947599      21.87590491      28.39717027 
Ag      22.85568397      23.71130801      27.18974753 
Ag      21.49752024      21.69603197      25.57201911 
Au      19.57476782      19.83882742      26.81903153 
Ag      25.85299775      19.12107008      25.06563017 
Au      25.24311917      23.56255176      30.71245102 
Ag      22.98556262      25.39258004      19.59164015 
Ag      20.97986129      27.91724433      23.53793640 
Ag      26.65893769      27.39885296      24.71172104 
Au      22.64566319      21.38817124      19.84111356 
Au      21.93985427      25.84305651      25.35878029 
Ag      27.13606948      25.45913898      29.46164282 
Ag      20.13832954      19.69286704      23.98427578 
Ag      25.86090582      25.11959957      20.18831338 
Ag      23.56704351      19.25757191      21.65311375 
Au      22.32320661      23.90299662      30.01542312 
Ag      21.03882146      17.50550136      25.76286412 
Ag      21.51749099      27.66929723      20.63418162 
Ag      24.39517387      27.44874929      21.23687329 
Ag      24.53134130      23.15292761      18.48813509 
Ag      28.58225369      23.14452989      28.45879535 
Au      18.62723599      21.97401448      25.04061981 
Au      26.68732881      21.24730768      29.59390589 
Ag      22.40621066      30.04680851      25.16177234 
Ag      27.22155209      27.18267805      21.82850388 
Au      21.79920319      19.69735969      30.26503145 
Au      18.46285622      26.36276006      27.72239468 
Ag      23.14639824      21.71735554      31.87083794 
Ag      21.59063402      23.39244564      17.93142910 
Au      17.06512121      24.32213785      26.20581385 
Ag      27.44487127      22.87018230      19.10671172 
Au      23.89261002      17.21886989      26.29150555 
Ag      23.30134385      17.45265109      29.17996224 
Ag      25.21610685      29.78212781      25.77252498 
Ag      21.69128327      17.28658624      22.87704730 
Ag      28.76275882      18.82192083      25.67316355 
Au      22.83954647      29.75966020      22.24153844 
Ag      25.32209087      25.37009759      23.07405038 
Ag      20.04189397      25.64239301      19.00799488 
Au      29.53721872      27.12697498      25.35015596 
Ag      19.38405057      24.25333892      29.55324338 
Au      18.01953757      22.18713888      27.95810291 
Au      19.97918113      28.27733213      29.33952097 
Ag      23.73148462      25.84380536      31.63826296 
Ag      20.94192691      26.25224087      31.16693758 
Au      26.40995581      19.05839000      22.17120272 
Au      24.64329072      19.45924804      30.81508581 
Ag      20.41267357      17.70536841      28.66483253 
Au      28.86029016      24.88831923      20.76556992 
Au      19.50134903      30.19421091      24.58641377 
Au      25.71706401      29.55247340      22.82499916 
Ag      24.90367911      27.14955541      18.31878573 
Ag      28.42381896      20.81998993      20.93368835 
Ag      29.02507646      27.37500328      28.25343257 
Ag      30.03860849      20.90263786      27.31525669 
Ag      18.12120065      23.91461003      20.34972777 
Au      17.86357861      19.70758901      20.71371893 
Au      25.60323361      27.71604871      30.46332390 
Ag      28.11678897      23.33758253      31.33564480 
Ag      21.88731737      30.19382290      28.07079178 
Ag      21.80313999      24.07890819      32.87769032 
Ag      18.66160655      27.94132781      20.12028256 
Au      16.26567537      22.07475823      21.68922841 
Ag      30.46737012      25.05640777      27.15073688 
Ag      23.41839354      23.53940767      24.32966785 
Ag      20.00969812      30.01543877      21.65393865 
Ag      16.64197758      20.08252113      26.37133991 
Ag      26.71866745      16.98487717      26.85157475 
Au      29.88321359      25.20378813      29.98576430 
Au      17.55713609      28.48907417      25.90936593 
Ag      16.17105160      26.35833569      24.33670327 
Ag      28.53293185      29.19293159      23.42037696 
Au      27.76705030      26.92421065      19.00765825 
Ag      24.12593156      19.10283548      18.66216824 
Au      27.39838579      16.80787215      23.97802130 
Au      26.91269235      18.80988417      19.26233530 
Ag      25.97428778      21.31799436      32.55549814 
Ag      12.51778714      18.77669985      22.27807244 
Au      23.12209753      21.14206588      16.87785483 
Ag      26.32236608      29.26997440      19.79415825 
Ag      19.92319664      19.57227175      32.41335133 
Ag      26.10480626      17.15570561      29.69156174 
Au      29.27187491      18.73600008      22.79232795 
Au      27.56622366      29.63912717      29.23005531 
Ag      15.24721241      22.38587527      27.46486484 
Ag      26.06498736      20.88741504      17.35657686 
Ag      24.55588982      23.74005947      33.46799993 
Au      23.56456256      25.18309696      16.60412847 
Au      17.56805179      18.00134011      28.11347798 
Ag      19.07265280      30.38678458      27.51765566 
Ag      23.48117013      29.46918601      19.35755436 
Ag      22.45230936      25.62517495      22.45919086 
Ag      16.13598421      20.18855811      29.30142881 
Au      27.47140634      19.09351646      31.32803806 
Au      29.10834254      28.96748402      20.60088953 
Ag      16.52995537      24.48403099      29.07839623 
Au      31.89054172      22.77757078      26.11331413 
Ag      16.75332184      21.62573487      18.92797243 
Au      24.85081139      31.60383093      20.77676539 
Ag      21.95246509      31.76439380      20.36729708 
Au      20.65329982      25.44049552      16.23202316 
Ag      24.25290928      31.88291295      23.90557446 
Ag      20.60035155      29.70633589      18.82297185 
Ag      23.18232787      15.08775133      21.57241604 
Ag      30.32250304      22.56436817      19.62066886 
Ag      25.07075387      22.91942807      15.55891843 
Ag      18.69160431      23.64678068      17.36198559 
Au      28.88494244      20.63302674      18.08515967 
Ag      17.56556758      22.36286435      30.91937705 
Ag      17.14422727      28.68112553      28.84870528 
Ag      27.91035701      16.77692959      21.08973051 
Au      15.58886990      26.87150295      27.09700105 
Ag      18.93743986      15.73146402      27.06261377 
Au      19.60930840      15.49857117      24.02500765 
Ag      18.08396762      26.62135767      30.73254047 
Ag      20.24521483      15.38598132      21.22098934 
Au      27.14209668      31.50974562      24.34246731 
Ag      24.80602558      15.11515403      28.20608935 
Ag      23.97958928      23.36421359      21.42900357 
Ag      20.15219708      21.19845570      16.37304206 
Au      27.86044154      22.79297565      16.13129827 
Ag      31.34265223      20.41533743      21.69274833 
Ag      26.91679223      31.76443435      27.43828966 
Ag      25.63065923      14.90819105      25.17329491 
Au      28.66371662      16.19873850      28.78188394 
Ag      26.03401836      14.87981903      22.25962325 
Ag      32.60440831      22.62480495      23.30929352 
Au      25.70150880      30.43800861      31.32870168 
Ag      22.90893915      30.90399867      30.77956109 
Ag      24.25835740      16.90340301      31.89401181 
Ag      31.30965559      17.92923226      24.73443109 
Ag      17.03848078      26.05151769      18.59267997 
Ag      31.51145798      22.89459684      28.91510689 
Ag      29.35067184      16.01365343      25.91793716 
Ag      15.55642589      29.23954980      23.96790706 
Au      16.09902967      28.96405841      21.10513958 
Ag      17.06862863      31.29044548      25.59853182 
Au      29.39073427      24.87203537      17.94392761 
Au      30.69504390      18.05731577      27.58207974 
Ag      18.57683805      17.48046374      30.84045914 
Ag      23.85988672      19.53269034      33.52136058 
Ag      18.00824919      30.69721764      19.69230147 
Ag      17.50610842      31.02800081      22.62802716 
Au      14.17294152      27.12384189      22.45360209 
Ag      32.62139630      19.98366792      26.48107117 
Au      24.79881567      25.58047694      25.98062358 
Au      32.94566770      26.71035564      23.07904067 
Ag      24.87332334      20.04040054      14.89947043 
Au      20.03143926      30.94235166      30.17358962 
Ag      31.70989351      27.69910015      27.15455158 
Ag      23.72571141      28.56327360      32.53053006 
Ag      29.92565882      15.93973267      22.95795884 
Ag      22.40207449      16.98738510      34.35839528 
Ag      13.90910458      19.65247508      27.46666313 
Ag      24.04177960      27.91056575      15.68334431 
Ag      15.51853655      17.58326332      30.47178992 
Ag      25.51892439      25.72320911      14.64776770 
Au      28.97636121      30.42993406      32.31432523 
Au      22.57557488      30.13168285      16.80070790 
Ag      21.95407362      21.67925773      34.74379238 
Ag      31.10563049      28.10095479      30.20161927 
Ag      19.84781043      14.99270751      29.74288876 
Au      22.50388883      25.39586397      13.19158624 
Ag      16.23447360      15.20230809      28.15293400 
Ag      25.14549050      32.70643818      29.58371646 
Ag      26.55573992      14.59572731      31.04910826 
Ag      28.51892102      13.57910810      24.07104438 
Ag      16.38580870      17.08290616      19.84987654 
Au      16.09376759      17.43363528      23.04848162 
Ag      20.91744022      15.56198754      17.69661355 
Ag      11.86261576      24.52576429      22.93921286 
Ag      14.79254770      29.99575289      26.99094056 
Ag      24.34706729      21.39648932      26.12582558 
Ag      15.08892409      19.54138984      21.10338943 
Au      25.27996991      31.24836009      18.04738738 
Ag      27.83819460      20.10712394      15.04464920 
Ag      30.18185163      27.00162000      22.48965553 
Ag      31.06571905      24.92084464      24.28181494 
Au      31.79267991      24.77351159      21.47377468 
Ag      20.53154200      23.82064725      23.79371870 
Ag      25.23303227      15.05863916      16.05102914 
Ag      30.74948871      29.67747328      25.14022112 
Ag      25.71407689      23.41882222      27.82827132 
Ag      26.92503924      27.72760127      16.40272304 
Ag      20.87787370      31.29192243      33.13525964 
Ag      17.66674730      24.09429464      23.30334265 
Ag      22.99610313      19.37511841      24.48195810 
Ag      27.80669009      21.00951935      23.83999452 
Au      19.57105687      25.88507491      21.94727563 
Ag      25.02236832      30.73102323      14.98974341 
Ag      25.22905250      19.27032403      27.90231671 
Ag      19.04403145      26.11659228      24.84630335 
Au      20.54163348      28.13018843      26.42311317 
Ag      21.38922711      26.00120526      28.24896031 
Ag      29.11923554      23.03218444      25.50514146 
Ag      19.17593856      21.81660370      22.17994516 
Au      24.55565149      17.06972814      23.41299012 
Au      22.80395287      28.11833523      29.88485003 
Au      20.76152720      19.52189815      21.14216648 
Au      20.35875594      22.13485206      31.22836796 
Ag      24.74021643      29.97187603      28.66544104 
Ag      18.06129113      28.23049150      22.98643162 
Ag      28.12629997      18.97217108      28.50974823 
Ag      18.98812874      20.08374029      29.69612415 
Ag      29.80392452      22.79984188      22.61169287 
Ag      19.65303990      21.60456805      19.23949280 
Ag      18.18117722      17.81072889      25.18559141 
Au      15.71628202      22.24733990      24.56123406 
Ag      16.65830589      26.15519876      21.43426834 
Ag      26.46022843      24.98186355      17.26455832 
Au      28.07978360      29.41924236      26.30400508 
Au      17.14646685      19.93893937      23.52212236 
Au      18.89610159      17.61713210      22.36614047 
Ag      30.70126555      20.73069838      24.44051957 
Ag      22.06841772      27.46437108      17.77276090 
Au      21.22249332      19.36858664      18.25477169 
Ag      22.23864688      17.25591533      19.91091292 
Ag      21.93719719      15.46121261      27.53020394 
Ag      19.02580100      24.35401311      32.42673510 
Ag      26.48262446      25.59462350      32.33557177 
Ag      14.80015458      24.34556406      22.78569002 
Ag      29.53494087      20.85833619      30.22500741 
Ag      23.76814249      32.01735517      26.81662975 
Au      22.55356597      15.20362743      24.73615542 
Ag      25.02563091      17.01620751      20.53698106 
Ag      28.37687903      27.73911064      31.21082943 
Ag      19.40014477      17.48300248      19.52116554 
Ag      27.66991444      31.25103069      21.55230109 
Ag      15.26120197      24.06233204      19.91047989 
Ag      21.37586347      17.09712500      31.39011137 
Au      21.30257559      32.02568649      23.19129679 
Ag      14.13338854      24.37447961      25.59147416 
Ag      22.23719557      23.08063566      14.96789826 
Ag      30.68716267      26.81447205      19.58168218 
Au      18.39612590      19.45024916      17.77558722 
Ag      22.90507682      18.32125126      16.20737419 
Ag      15.48653784      17.45856681      26.05436802 
Ag      30.22433877      29.99865954      28.10212372 
Ag      29.82200658      18.46265641      19.84356805 
Ag      13.59651507      21.76136488      22.67585798 
Ag      30.38372600      17.64392778      30.73741338 
Au      26.77957930      16.01121253      18.56954597 
Au      20.77112613      32.23585318      26.31314795 
Ag      19.16484274      27.85104379      17.25494726 
Ag      25.94899716      18.04175619      16.65083156 
Ag      14.43508348      19.60098520      24.45437015 
Au      18.95416806      33.36056198      20.63376031 
Au      23.84193235      22.01008849      12.60788591 
Ag      34.52842905      22.62732192      27.39692382 
Au      29.01827338      32.85482764      29.19687891 
Ag      19.39680027      31.04767831      16.49143490 
Ag      23.83427195      15.23403798      18.73103360 
Ag      14.14219978      27.11819730      19.45989039 
Ag      21.01309366      26.70313986      34.18887028 
Ag      19.72353843      28.66068246      32.10452496 
S      20.56629338      15.79649533      33.37410753 
S      28.50770787      32.63246759      19.65587515 
S      23.94312345      22.74073615      35.65001335 
S      24.14386748      18.14950861      35.54294933 
S      12.31081779      18.23842046      24.60554393 
S      32.32217690      17.34592394      29.29630308 
S      31.48527481      14.77818658      21.42702136 
S      29.61708571      19.00059265      16.39672106 
S      28.21687257      21.94102171      33.41812226 
S      23.13832726      27.73725714      34.77655094 
S      13.48681972      30.18884107      24.94722670 
S      16.42328699      17.99926547      17.56287738 
S      32.73958960      23.14030967      19.92026067 
S      26.92086727      30.65125347      33.45190169 
S      22.95068604      32.45319316      32.76762935 
S      17.22494939      31.41253864      17.43582270 
S      11.18188860      22.23027057      22.66008623 
S      25.14142601      13.08671980      26.77648736 
S      33.64216091      29.19423730      27.72108745 
S      28.56217973      26.43641395      33.36511188 
S      24.15072990      24.25751297      11.92508467 
S      27.57394888      25.73239419      13.29903533 
S      19.24906512      33.22714247      30.33793814 
S      28.85526827      17.56450197      32.62398705 
S      21.22990810      34.01046930      24.63253385 
S      30.89515777      32.38191233      27.84859871 
S      28.90549030      29.24164140      16.39637560 
S      33.54017320      17.17499480      23.98287462 
S      34.90141520      21.72634646      23.54782945 
S      19.30484218      13.68377790      25.63684370 
S      20.75420524      33.55112785      19.11445687 
S      12.86962925      19.32130186      19.96554241 
S      18.78942753      30.24882117      33.74050095 
S      31.67345923      31.05171305      23.32112755 
S      35.19537339      27.45340223      23.51501522 
S      31.15437374      30.27123909      31.43757836 
S      23.10283926      13.27445072      23.29753396 
S      32.21449796      19.16903506      19.71860100 
S      28.53069734      14.55900938      17.71229382 
S      15.48787560      30.45658575      29.27583272 
S      31.65388800      21.77017768      31.13109552 
S      20.69528396      26.63418344      14.06562931 
S      17.06277207      26.96941319      16.26281354 
S      27.44000155      12.86719391      22.01944152 
S      16.79954671      33.64331242      26.28806970 
S      15.17219611      21.73211334      31.04389508 
S      21.13062098      16.72072822      15.57609079 
S      24.83374470      28.85459501      13.49073671 
S      19.91440071      22.37385253      14.22027104 
S      21.32565077      31.28892057      15.04994410 
S      23.38704335      33.94045727      28.33130924 
S      13.66327216      17.63924318      28.90993166 
S      24.31375538      33.61917538      22.06225486 
S      27.39411001      20.95125971      12.75578406 
S      16.28301066      23.05833629      16.96958645 
S      26.04204831      16.72797785      14.51550561 
S      17.44688921      14.47963729      30.13105665 
S      28.57754983      14.00637770      29.86792591 
S      27.27155526      33.64097582      30.56064577 
S      32.75072969      28.18910208      19.59711687 
S      24.91145851      14.71020338      32.80679522 
S      14.40652130      29.54960317      19.41033244 
S      13.35972240      25.97895389      27.36381142 
S      34.72343368      20.25449592      27.78252389 
S      30.29118535      23.52595005      16.12351833 
S      18.77836633      25.76682076      34.44796674 
S      35.29079715      24.92164205      27.14510150 
S      19.74567621      20.68399808      34.61902710 
S      32.16514044      25.86271824      30.59797753 
S      23.46159318      19.69759184      12.86978896 
S      17.09537806      33.42694853      22.07848165 
S      15.64737279      26.15080907      30.72458049 
S      11.78445381      26.93624428      22.97245003 
S      24.35883361      13.23642901      17.36612181 
S      13.06841376      24.96095820      19.20396911 
S      22.07285170      13.89844679      29.45776624 
S      16.79886715      17.68335570      32.54574576 
S      15.75239266      15.48913574      21.63834753 
S      14.90857095      15.05451621      26.12136771 
S      25.29338559      32.80704496      16.19719003 
S      29.97558794      13.61219698      26.01344869 
S      20.32000044      13.83475323      19.30307259 
S      27.06071537      33.56665586      25.63965995 
S      12.83806835      21.90220126      27.12930700 
C      21.15179697      14.05822447      33.25623571 
C      30.28009135      32.97728876      19.99352320 
C      23.34737422      24.08017345      36.76187342 
C      23.38042615      18.99684817      36.98457412 
C      10.89417139      19.27136129      25.15798169 
C      32.50197802      15.53308291      29.05923347 
C      31.46895313      12.95580862      21.67772790 
C      31.23078427      19.65913533      15.82223189 
C      28.01793394      22.97640608      34.91893440 
C      22.79312930      29.19509418      35.84210394 
C      13.41820597      31.97312733      24.51213042 
C      16.91068026      16.64923239      16.41449253 
C      33.33537242      24.15021241      18.50886336 
C      26.78888675      32.39861892      33.99019342 
C      22.43306350      34.12749603      32.21362200 
C      17.05597377      33.24140904      17.36329283 
C      10.64923792      22.20638958      20.89825009 
C      26.68088837      12.21766783      27.26151765 
C      34.76585335      28.32118856      28.88583854 
C      28.07005304      27.46461017      34.80701511 
C      23.43625280      24.29153344      10.22739307 
C      27.14268936      26.36169576      11.63120743 
C      17.71751770      33.11261890      31.34828872 
C      29.63677786      18.52224103      33.98144548 
C      19.67398542      34.91506986      24.30647907 
C      32.36806581      32.68872408      28.89936401 
C      28.86030348      30.22945890      14.84980862 
C      34.47288004      16.69764031      25.49409123 
C      35.71160482      21.73793876      21.89773866 
C      17.70010758      12.88011001      25.24542829 
C      21.61144508      35.11551418      19.55584947 
C      12.77597428      17.77822628      18.97139833 
C      18.93136285      29.59646608      35.45159829 
C      33.33316044      31.61269061      23.87510708 
C      35.54285408      28.86771858      22.39996984 
C      32.20375922      29.87492229      32.89689244 
C      21.63291271      12.21948568      23.00537913 
C      33.31259340      17.80805947      20.26947239 
C      28.00147250      12.83090560      18.04579590 
C      14.18574236      29.72060540      30.34465149 
C      32.99526965      20.52035601      31.10356483 
C      19.23923934      25.97749016      13.16536802 
C      15.81770177      28.29860930      16.04722300 
C      26.40343584      11.41800938      22.47311326 
C      15.22949957      33.88942894      27.21467413 
C      14.85350248      20.85695801      32.62948509 
C      21.79744976      15.54335989      14.33411084 
C      23.33832403      29.23346439      12.49070103 
C      19.97279142      21.09677031      12.89972824 
C      21.69491971      33.08113597      15.22452098 
C      24.17848343      35.40330717      27.55213051 
C      12.16011517      17.99786491      29.91129821 
C      25.85644693      34.61038098      22.06785263 
C      29.01118390      20.68488134      11.91457325 
C      16.14492538      21.94051839      15.51777984 
C      27.79724701      16.24994117      14.24371280 
C      17.37362391      12.63812784      30.12020680 
C      29.80962682      13.90869600      31.22853128 
C      27.16067047      35.42937339      30.14505824 
C      32.60721949      29.42795785      18.24536121 
C      25.96915566      15.07828425      34.26933571 
C      12.96348261      30.18003358      20.35824957 
C      12.15330907      27.17859720      26.68689834 
C      36.21182440      19.81555778      26.79620701 
C      30.72621627      24.67292082      14.76123217 
C      18.85521305      24.64538937      35.90617153 
C      36.49483767      24.75943399      25.76585053 
C      19.62578360      19.38304843      35.91100812 
C      32.26200252      25.58119953      32.40839594 
C      24.53040264      18.87745189      11.62271763 
C      15.61382291      33.47785503      20.99360310 
C      15.23042161      25.39157986      32.34272590 
C      10.77195910      27.29912211      21.48216598 
C      22.85370865      12.58779875      16.53733601 
C      12.88874855      24.67146917      17.39854342 
C      21.79265582      12.25934347      28.67326971 
C      16.66463868      16.05775947      33.38739334 
C      13.95022339      15.15163674      21.59021201 
C      13.14515906      14.91032084      26.60565354 
C      27.00984322      33.41539799      15.97752692 
C      31.69514910      13.45048043      25.38497102 
C      18.57381678      13.38367287      18.93435488 
C      28.74523219      34.29374608      25.56751103 
C      12.00767956      22.35783026      28.70425122 
H      22.21255447      14.00532156      32.98796334 
H      20.98933255      13.57961120      34.22878714 
H      20.55704477      13.54954898      32.48788668 
H      30.76808172      33.28549831      19.06260990 
H      30.31922017      33.79864908      20.71904602 
H      30.78740130      32.10348389      20.41744462 
H      24.22822917      24.55267418      37.21257513 
H      22.77918543      24.84069549      36.21419518 
H      22.72602313      23.64101328      37.54988723 
H      23.23130038      18.26087203      37.78267532 
H      24.07490179      19.77585042      37.31912628 
H      22.42411117      19.46402542      36.72852290 
H      11.01286109      19.48393697      26.22710296 
H      10.84601829      20.21650071      24.60655586 
H       9.97640370      18.69607528      24.98977403 
H      33.26431952      15.37493830      28.28704510 
H      32.84369251      15.08909984      30.00134833 
H      31.56013988      15.07051487      28.74302971 
H      30.45512585      12.57771215      21.85102548 
H      31.89492773      12.48137135      20.78648029 
H      32.10013677      12.72600661      22.54370755 
H      31.16775030      20.73195761      15.60738214 
H      31.96792344      19.48689923      16.61682637 
H      31.51930249      19.10960826      14.91827312 
H      27.49096659      22.39736042      35.68505264 
H      29.02016520      23.24536056      35.27371270 
H      27.46076188      23.89513201      34.69882488 
H      22.13763388      29.91887426      35.34049210 
H      22.33227917      28.85972066      36.77825825 
H      23.75211320      29.67880920      36.06245620 
H      12.76383181      32.48789401      25.22500508 
H      14.41118412      32.43718536      24.51917064 
H      12.98735237      32.05164659      23.50675318 
H      16.94998212      17.06515530      15.40092589 
H      17.89300234      16.23536870      16.66825613 
H      16.14805015      15.86327961      16.46078393 
H      32.49516892      24.62578123      17.98929723 
H      34.02965709      24.91471535      18.87398338 
H      33.85145939      23.46772677      17.82249813 
H      27.10757669      33.07993476      33.19427675 
H      25.73570424      32.58167865      34.23644487 
H      27.41597970      32.52770205      34.88001524 
H      21.52266817      34.08748040      31.60478800 
H      22.25853052      34.74243272      33.10401481 
H      23.24527594      34.55776056      31.61566658 
H      16.12047915      33.51185776      17.86718870 
H      17.89423776      33.74208675      17.86063332 
H      17.00314036      33.55123607      16.31359150 
H      11.30668678      22.82415880      20.27634525 
H      10.67795063      21.17040903      20.54098036 
H       9.62492590      22.59277228      20.85104696 
H      27.51320215      12.90586606      27.43379261 
H      26.48535031      11.65839767      28.18381399 
H      26.95195305      11.51884092      26.46080505 
H      35.71868937      28.86237430      28.90481765 
H      34.30846392      28.33714482      29.88237630 
H      34.93658693      27.28211544      28.58256052 
H      28.08301729      26.82172204      35.69525881 
H      28.79227551      28.28017221      34.92973171 
H      27.07098386      27.89249041      34.67912119 
H      23.44611500      25.33037508       9.87800386 
H      24.07868403      23.67679866       9.58639961 
H      22.41458909      23.90164262      10.21779028 
H      26.32009350      25.78333929      11.19765478 
H      26.83819379      27.41067459      11.72698025 
H      28.03085943      26.28277231      10.99388499 
H      17.99065485      32.82754216      32.37156644 
H      17.25026470      34.10453834      31.34939216 
H      17.02213756      32.37457703      30.93250152 
H      30.48593628      17.94346600      34.36235915 
H      29.96779703      19.50713874      33.63593525 
H      28.88946895      18.65424339      34.77260921 
H      18.80746243      34.24760233      24.28598625 
H      19.54108251      35.65414494      25.10583871 
H      19.76666200      35.42262709      23.33852135 
H      32.23188060      32.26784986      29.90109445 
H      33.22083602      32.20121810      28.41195712 
H      32.53247907      33.77032919      28.95819107 
H      29.64521722      30.99351037      14.88002650 
H      29.05599480      29.53550825      14.02327732 
H      27.88080323      30.70056195      14.69599542 
H      34.24211122      15.64636723      25.70411260 
H      35.54594407      16.79760584      25.29583959 
H      34.19442508      17.31173982      26.35837924 
H      34.98031593      21.58821666      21.09606562 
H      36.18391975      22.71927316      21.76998324 
H      36.47750317      20.95551445      21.86588070 
H      17.27862913      12.46477835      26.16859816 
H      16.98659107      13.59064860      24.81762099 
H      17.89439618      12.07146856      24.53091794 
H      22.46983322      35.20933007      18.87926896 
H      20.92739887      35.95737996      19.40531073 
H      21.97289408      35.09189977      20.58930992 
H      13.20090249      17.99600635      17.98467781 
H      13.34290179      16.95921572      19.42491604 
H      11.72394846      17.48903427      18.86970192 
H      18.78838765      30.42614181      36.15331496 
H      18.14241158      28.84860057      35.59033373 
H      19.90157372      29.12276460      35.63190908 
H      33.92877352      30.78505085      24.28272626 
H      33.86126021      32.07000910      23.03049448 
H      33.18532179      32.36266580      24.66122129 
H      35.65146218      28.47671986      21.38203541 
H      34.73461604      29.60637542      22.41133880 
H      36.48004955      29.33248338      22.72791749 
H      31.85935799      28.96687556      33.40123244 
H      33.22958352      29.73052809      32.53728747 
H      32.17617084      30.72126542      33.59265691 
H      21.51034272      11.55587790      23.86929459 
H      20.72914515      12.82819497      22.88301013 
H      21.81106736      11.63082978      22.09818033 
H      33.40440091      17.08440939      19.45110497 
H      34.29885210      18.22962591      20.49849425 
H      32.92747756      17.29356119      21.15447938 
H      27.15369357      12.58848238      17.39420248 
H      28.85222448      12.17939918      17.81337580 
H      27.71147168      12.70155716      19.09472388 
H      13.24094337      30.24667240      30.16944081 
H      14.06772995      28.64964170      30.14758033 
H      14.49590069      29.85810375      31.38730964 
H      32.81834869      19.79646000      31.90829217 
H      33.05466589      19.99138156      30.14813511 
H      33.94525698      21.03866565      31.27925937 
H      19.24184376      24.88069134      13.17269869 
H      18.35001324      26.35014694      13.69101501 
H      19.26525284      26.36047370      12.13917594 
H      15.80506340      28.99956265      16.88653918 
H      16.05522834      28.84896014      15.12947179 
H      14.83142750      27.82908368      15.94886898 
H      27.05737156      10.60234474      22.80045904 
H      25.68891236      11.67132747      23.26401445 
H      25.85187277      11.11003761      21.57699070 
H      14.41495221      33.98703045      26.48774047 
H      15.02064734      33.05216698      27.88985767 
H      15.31204021      34.81883030      27.78937776 
H      14.58610649      21.61071863      33.37945887 
H      14.01469940      20.16398790      32.49357252 
H      15.72834533      20.29228095      32.96602648 
H      21.92898049      16.09447157      13.39533600 
H      22.76698516      15.12978493      14.64173003 
H      21.07814650      14.73101739      14.17965463 
H      22.57758826      29.75437657      13.08317894 
H      23.64340687      29.86234342      11.64639332 
H      22.92666410      28.28564654      12.12162651 
H      18.94972899      20.74714219      12.71778304 
H      20.37342425      21.55211197      11.98652332 
H      20.60762263      20.25071516      13.18003227 
H      22.72539579      33.26467053      14.89890235 
H      20.99600123      33.62690045      14.57965577 
H      21.57211551      33.40866944      16.26255132 
H      24.33943114      36.16830688      28.32085773 
H      25.13257901      35.14193215      27.07975701 
H      23.49368149      35.79113808      26.78818085 
H      12.02320770      17.19518935      30.64504574 
H      12.24453496      18.95972342      30.42706846 
H      11.29767396      18.01993089      29.23453876 
H      26.22418587      34.72822741      21.04303252 
H      25.60562426      35.59069756      22.49173297 
H      26.62096204      34.13038225      22.69076534 
H      29.84271717      21.07108473      12.51218709 
H      29.14600030      19.60844823      11.75647205 
H      28.99021613      21.19419079      10.94392711 
H      15.19682542      21.39535822      15.58092473 
H      16.16296729      22.55914470      14.61315467 
H      16.98133510      21.23185434      15.49313018 
H      28.25702923      15.86399271      15.16003838 
H      27.82229753      15.47949222      13.46450256 
H      28.34673779      17.13744780      13.90743088 
H      16.32393175      12.32838571      30.18194189 
H      17.82632584      12.22665132      29.21255836 
H      17.91334421      12.26677049      30.99925357 
H      30.80460754      13.78911084      30.78495229 
H      29.78922613      14.80445104      31.85867782 
H      29.57313687      13.02439021      31.83179646 
H      26.99118600      35.58023112      29.07445676 
H      26.31889538      35.84739747      30.71030079 
H      28.08776763      35.92771165      30.44943278 
H      32.82672021      28.92440905      17.29662735 
H      31.60021745      29.85733538      18.19530097 
H      33.34379268      30.22126485      18.41534915 
H      26.72943989      15.83067546      34.03352590 
H      25.32874677      15.45166744      35.07742343 
H      26.45531452      14.14665332      34.58030137 
H      12.88541026      29.69684214      21.33866266 
H      13.09763992      31.25990536      20.49323352 
H      12.05325760      29.99726040      19.77568054 
H      12.44036020      27.54633945      25.69783686 
H      11.18917793      26.66097932      26.61085333 
H      12.06543659      28.02302940      27.38085474 
H      36.14233981      20.19032161      25.76883243 
H      37.09231924      20.24468072      27.28765537 
H      36.30227561      18.72327370      26.78442976 
H      29.95877521      25.43889028      14.61371418 
H      31.68569663      25.14206492      15.00927739 
H      30.82873057      24.08563163      13.84052710 
H      19.56866461      23.82779677      35.75344709 
H      19.13629320      25.22866913      36.78991085 
H      17.85493334      24.22089354      36.05258963 
H      36.67784254      25.75045312      25.33506003 
H      37.42350338      24.35868573      26.18911254 
H      36.12044727      24.08162461      24.99059939 
H      19.71408435      19.84314273      36.90180583 
H      18.63860630      18.91521003      35.81392984 
H      20.39676231      18.61179344      35.78712697 
H      32.36022249      24.50132582      32.57653803 
H      33.15196982      26.10052329      32.78384365 
H      31.36461106      25.95278482      32.91715215 
H      25.50955815      19.36658522      11.56985950 
H      24.66062468      17.83724607      11.94481823 
H      24.02788258      18.91501344      10.64994962 
H      14.73739345      33.44803314      21.65244838 
H      15.61376765      34.41776904      20.43084525 
H      15.58541368      32.62490742      20.30595577 
H      15.51268917      26.07756846      33.14876048 
H      14.14742285      25.22005968      32.35835355 
H      15.74740010      24.43299149      32.47136424 
H      11.17140209      26.79705225      20.59367701 
H       9.75072800      26.95216267      21.67779482 
H      10.76284250      28.38393146      21.32729982 
H      22.31841613      11.96510554      17.26317649 
H      22.18814083      13.39222106      16.20691432 
H      23.15798230      11.98101223      15.67711442 
H      12.39661168      23.70033544      17.26764370 
H      12.26409782      25.46047114      16.96617772 
H      13.86771242      24.64395269      16.90691436 
H      22.72232653      11.96328073      28.17049932 
H      21.54293830      11.53621841      29.45832614 
H      20.98225377      12.30779224      27.93730503 
H      16.64020287      15.24229229      32.65613117 
H      17.54008332      15.93580313      34.03601621 
H      15.74759108      16.05741214      33.98749720 
H      13.36386548      16.07711473      21.53202099 
H      13.73156659      14.51479445      20.72501394 
H      13.68853185      14.62276286      22.51462402 
H      12.92476293      13.85084223      26.77916778 
H      12.94010835      15.49441145      27.50973342 
H      12.53122489      15.29317142      25.78220714 
H      27.74591266      32.63183685      16.19298024 
H      27.12239692      33.77068506      14.94692495 
H      27.16350944      34.24374588      16.67877452 
H      31.91698510      14.18153380      24.59887961 
H      32.37120903      13.61361723      26.23284115 
H      31.84016539      12.43431841      25.00102102 
H      18.52379950      12.95319236      17.92806857 
H      18.25849635      12.63340990      19.66882825 
H      17.90639614      14.25023681      19.00198537 
H      28.79843596      34.94276404      24.68547859 
H      28.90612186      34.88418647      26.47732583 
H      29.51597529      33.51946570      25.50701600 
H      11.86731140      23.44577388      28.71345876 
H      11.03243466      21.85878741      28.74239092 
H      12.61693891      22.06565654      29.56771259 
