699
Properties=species:S:1:pos:R:3 i=71 optimized=T E=-11603.8165377685 pbc="F F F" jobid=279_84-Ag-79_9-000002-PBE
Ag      33.12681774      25.44367306      25.99238563 
Au      32.02822318      29.31390842      21.49328117 
Au      34.52004664      28.09407785      25.45486336 
Ag      29.86952544      15.15735391      19.70668986 
Ag      33.81683896      19.71007760      23.70583717 
Ag      27.16630731      23.30502855      13.32494822 
Au      18.13082512      33.22137382      28.17749337 
Au      28.48819023      30.70919549      18.15766732 
Ag      24.92783709      21.25329410      23.28783089 
Au      26.29273875      23.28494549      24.95555403 
Ag      28.16250980      25.11930410      23.65508105 
Au      23.77537329      21.68335972      29.04963903 
Ag      23.33063839      27.91644492      27.00744550 
Ag      26.87534181      23.08649525      22.03991792 
Au      22.39135402      19.56240711      27.42591304 
Ag      27.21804387      21.16995167      26.74843990 
Ag      22.02627036      21.49816937      22.75844268 
Ag      21.02257522      23.56310473      20.91206171 
Ag      27.62316164      25.31935124      26.57140399 
Ag      19.94525717      24.01772719      26.70331146 
Ag      25.47123104      21.06201121      20.40770586 
Ag      24.23473095      25.77970550      28.79276320 
Ag      23.86795861      27.72493519      24.10627245 
Ag      26.14196815      27.64170614      27.57777208 
Ag      20.90952002      21.90020350      28.46571498 
Ag      22.83833918      23.74530823      27.20290996 
Ag      21.46008464      21.69205003      25.61757518 
Ag      19.55069176      19.85431835      26.89392361 
Ag      25.84316672      19.13289241      25.09533834 
Ag      25.22611904      23.64202747      30.69687867 
Ag      22.99801678      25.38510776      19.62330538 
Ag      20.99517813      27.94020523      23.53524006 
Ag      26.67241086      27.40411520      24.71285778 
Au      22.57255474      21.32252065      19.89660445 
Ag      21.93445058      25.87890707      25.38756228 
Ag      27.10516987      25.50334166      29.44131518 
Ag      20.11401109      19.67589183      24.03881015 
Ag      25.85811108      25.12481008      20.22950045 
Ag      23.52612156      19.23663890      21.68495955 
Ag      22.30135562      23.94778109      30.03913913 
Ag      21.07366518      17.48986970      25.85098524 
Au      21.51612234      27.64301663      20.66177271 
Ag      24.39419014      27.43910895      21.27307599 
Au      24.50069662      23.12756755      18.61387094 
Ag      28.59468177      23.20116599      28.46237247 
Ag      18.61111472      21.95123552      25.10819644 
Au      26.70073162      21.32422098      29.65054029 
Au      22.38618664      30.06906027      25.12970615 
Ag      27.22564648      27.17158789      21.82517536 
Ag      21.82165387      19.75285924      30.28851250 
Ag      18.43493254      26.38517608      27.70607966 
Ag      23.12713535      21.78344874      31.91255602 
Au      21.58192550      23.35638497      17.98990910 
Au      17.06187949      24.27942940      26.17103205 
Ag      27.41612946      22.84552661      19.14715673 
Ag      23.90915924      17.19228511      26.35066215 
Ag      23.32619490      17.48571598      29.25189238 
Ag      25.20351731      29.77870894      25.73263763 
Ag      21.63935093      17.30462219      22.95708321 
Ag      28.77605302      18.85813457      25.66596684 
Ag      22.83195077      29.81679345      22.26023018 
Ag      25.33540820      25.37513382      23.09343484 
Ag      20.07527593      25.62593419      19.01460687 
Ag      29.55572529      27.18983105      25.33574160 
Au      19.34817809      24.24878443      29.55380022 
Ag      18.00575487      22.19578827      27.96840985 
Ag      19.93709531      28.35751864      29.28849791 
Ag      23.72788880      25.91349707      31.65303252 
Au      20.93830704      26.34562894      31.12050408 
Ag      26.41601791      19.02039601      22.19881378 
Ag      24.64530372      19.56664577      30.83704637 
Ag      20.45021224      17.68517373      28.73517973 
Ag      28.81811464      24.86023748      20.77666555 
Ag      19.54085124      30.18538881      24.57515963 
Ag      25.72465513      29.57395384      22.82545744 
Ag      24.94591639      27.20343050      18.31154691 
Ag      28.41875291      20.80887231      20.94031261 
Ag      28.99856844      27.40897018      28.19519334 
Ag      30.06741794      20.95580565      27.34148514 
Ag      18.16102064      23.87865709      20.35719153 
Ag      17.80362201      19.69252549      20.67319991 
Ag      25.58512718      27.75699393      30.41648617 
Ag      28.07938407      23.40350762      31.30726030 
Au      21.87344974      30.21621123      28.11855616 
Au      21.77241640      24.12490722      32.87216734 
Ag      18.67469989      27.94246876      20.07642735 
Ag      16.35840869      21.98257285      21.67915300 
Ag      30.45666795      25.09158911      27.13194897 
Au      23.38967928      23.55066170      24.35123571 
Ag      20.03961709      30.02222850      21.62235868 
Ag      16.65114037      20.07530531      26.37506389 
Ag      26.76784284      17.08797471      26.89513653 
Ag      29.85791058      25.29512094      29.98696351 
Au      17.54214508      28.46202054      25.90528766 
Ag      16.20972201      26.35008526      24.30759841 
Ag      28.50723006      29.21347498      23.40604066 
Ag      27.79251792      26.88135607      19.02059105 
Ag      24.11229622      19.04326825      18.76686981 
Au      27.38313569      16.85508598      23.99463966 
Ag      26.94221977      18.81553151      19.30421092 
Ag      25.94236089      21.44165926      32.58307951 
Ag      12.62913990      18.81281702      22.03143750 
Ag      23.09350012      21.09002190      17.00064783 
Ag      26.31816088      29.18289988      19.91491240 
Ag      20.04827857      19.56944991      32.46450538 
Ag      26.14169151      17.30031858      29.76930684 
Ag      29.27725585      18.73516262      22.75871507 
Ag      27.54164482      29.72976658      29.18655472 
Ag      15.23139946      22.42435830      27.38837766 
Ag      25.99689330      20.86824793      17.44485112 
Au      24.57273254      23.87777832      33.45632660 
Ag      23.59509170      25.13623273      16.66679757 
Au      17.63254862      17.99937846      28.13847230 
Au      19.00220212      30.42133361      27.50396319 
Ag      23.46073210      29.45182038      19.41866955 
Au      22.45082888      25.61891752      22.50875287 
Au      16.21119614      20.19227070      29.27984538 
Ag      27.47995209      19.21979517      31.46815945 
Ag      29.13730102      28.97741049      20.56961811 
Ag      16.46712972      24.58012644      28.97633077 
Ag      31.91187637      22.83350513      26.13809510 
Ag      16.68022268      21.70176179      18.85847488 
Ag      24.84007482      31.51966324      20.80318688 
Ag      21.95227448      31.76969621      20.31657989 
Au      20.75577070      25.30870572      16.19258076 
Ag      24.24299375      31.90170725      23.88692411 
Ag      20.61077403      29.68019885      18.78323000 
Ag      23.17934029      15.11529775      21.66009043 
Ag      30.30623935      22.60248329      19.70070197 
Au      25.06642943      22.89130895      15.62416640 
Ag      18.72465061      23.62023760      17.36409422 
Ag      28.83728147      20.65945689      18.08351250 
Ag      17.48209110      22.54145863      30.89251366 
Ag      17.05224632      28.72062283      28.81407244 
Ag      27.88721010      16.79798973      21.10094863 
Au      15.53752071      26.87342623      27.03512969 
Ag      18.96154049      15.69378418      27.10814315 
Ag      19.68486104      15.53215597      24.11162395 
Ag      18.07542511      26.70649488      30.70270649 
Ag      20.26944392      15.44340194      21.30606369 
Ag      27.18151648      31.55330565      24.32528701 
Ag      24.93888366      15.24288487      28.29305596 
Ag      23.95912389      23.33047721      21.48720824 
Ag      20.19252894      21.22575071      16.42073624 
Ag      27.88506105      22.74641059      16.11099878 
Ag      31.39881720      20.41538388      21.74163536 
Au      26.74253687      31.77808188      27.36375299 
Ag      25.68844342      14.95652465      25.25809894 
Ag      28.69533249      16.28373300      28.86652844 
Ag      26.04328478      14.90400826      22.28937154 
Ag      32.57430117      22.67600194      23.33181126 
Au      25.67811756      30.38552045      31.35645685 
Ag      22.87677797      30.89603584      30.76406395 
Ag      24.29032339      17.00145891      31.93942481 
Ag      31.30125679      17.93309636      24.74078003 
Ag      17.06687122      26.03255239      18.59331020 
Ag      31.51062340      23.03586929      28.95008204 
Ag      29.37026456      16.06577279      25.92988429 
Ag      15.58726739      29.22418219      23.90935519 
Ag      16.08534158      28.95739199      21.01496988 
Ag      17.05780787      31.24197080      25.50347178 
Ag      29.32591388      24.74877759      17.91026636 
Au      30.68578373      18.08750208      27.59048303 
Au      18.66727684      17.57079839      30.90695045 
Ag      23.83982244      19.59685843      33.54354624 
Ag      18.05400702      30.72501794      19.67219079 
Au      17.52039900      30.96888939      22.58511533 
Ag      14.23600236      27.07645557      22.37577380 
Ag      32.63287894      20.01864343      26.41979998 
Ag      24.78926419      25.60113378      25.97184438 
Ag      32.73974148      26.88019152      23.28657807 
Ag      24.75436718      20.06363274      14.92628947 
Ag      20.04138961      31.07405161      30.12664464 
Ag      31.74684780      27.69905564      27.13668677 
Ag      23.72306750      28.64282048      32.54519875 
Ag      29.88767510      15.94250079      22.99736228 
Ag      22.55454629      16.98264809      34.42905825 
Ag      13.90781697      19.54447252      27.58492279 
Ag      24.04781980      27.81581563      15.62091894 
Ag      15.56719542      17.50422256      30.38599296 
Ag      25.62002540      25.59925582      14.70422578 
Ag      28.70203882      30.55849656      31.97200079 
Ag      22.67873477      30.11072010      16.77156317 
Au      22.10770295      21.77520727      34.87935515 
Ag      31.13201464      28.07958208      30.16166311 
Au      19.32012306      14.23777072      29.63865758 
Ag      22.75012122      25.62807219      13.87827468 
Ag      16.15274313      15.19417497      27.93033352 
Au      25.65177513      33.63522974      29.36162692 
Ag      26.62897228      14.68771600      31.00538332 
Ag      28.39109903      13.58559709      24.06591768 
Ag      16.32638556      17.20920664      19.51284898 
Ag      16.13925690      17.25668849      23.29280436 
Au      20.78048276      15.44333482      17.77632368 
Au      11.89051339      24.52077601      23.07518185 
Ag      14.70996342      29.91096381      26.85432660 
Au      24.33521971      21.40415179      26.17197287 
Ag      15.01620319      19.84163386      20.44468371 
Ag      25.35529863      30.97224252      17.97790175 
Ag      27.75876555      19.91499909      15.29366550 
Ag      30.06702138      26.99940437      22.46368353 
Ag      30.96671686      24.91239706      24.27324820 
Ag      31.68243495      24.80078112      21.50803437 
Ag      20.51571798      23.80599644      23.83530298 
Ag      25.24058892      15.04962747      16.09837113 
Ag      30.69457850      29.79591248      25.15946254 
Ag      25.71573158      23.45675370      27.82919596 
Ag      26.98448029      27.55862249      16.36818282 
Ag      20.75283700      31.40918106      33.04783533 
Ag      17.71047417      24.04619015      23.30938386 
Au      22.98358107      19.34140366      24.51646572 
Au      27.78636592      20.99067406      23.85113690 
Ag      19.59410224      25.87140814      21.95295405 
Au      24.95518789      30.86880352      14.91012930 
Ag      25.23801290      19.33275810      27.95517456 
Ag      19.04579924      26.11739293      24.84726644 
Au      20.50557362      28.14337606      26.40057250 
Au      21.36304761      26.02042566      28.23128768 
Ag      29.10478863      23.04208829      25.54423498 
Ag      19.18090888      21.76259212      22.21925998 
Ag      24.54799400      17.07491621      23.48983949 
Ag      22.79610588      28.14742996      29.89835984 
Ag      20.66730938      19.49775598      21.15164851 
Ag      20.33130844      22.16908476      31.29665784 
Ag      24.73903957      30.05050630      28.69324161 
Ag      18.07384950      28.22976304      22.95781914 
Au      28.13531296      19.05122530      28.58427318 
Ag      19.00511630      20.14042568      29.77959760 
Ag      29.76383749      22.78117437      22.63580646 
Ag      19.61099614      21.58156253      19.26340805 
Ag      18.22989045      17.80093198      25.25915063 
Ag      15.77729213      22.17427689      24.54518867 
Au      16.73320786      26.16261435      21.42399556 
Ag      26.43540707      24.91779019      17.36064797 
Au      28.04507077      29.47639812      26.26545180 
Ag      17.19284895      19.88542661      23.51346248 
Ag      18.83444018      17.66662279      22.41955361 
Au      30.70558125      20.75779982      24.46603487 
Au      22.12589906      27.45270030      17.75514861 
Ag      21.13511534      19.36060657      18.33617283 
Ag      22.17518065      17.24551128      20.00391119 
Ag      21.98975416      15.46091978      27.63926901 
Au      18.96317667      24.47647591      32.38082454 
Ag      26.49568255      25.65860107      32.36889060 
Au      14.87270804      24.25323900      22.78663554 
Ag      29.59238007      20.89487111      30.19703654 
Au      23.71554635      32.01516011      26.76172586 
Ag      22.57047806      15.19248972      24.76176696 
Ag      25.02084504      17.02471302      20.58784208 
Ag      28.36351300      27.73737658      31.06503280 
Ag      19.32589576      17.47677339      19.55150646 
Ag      27.66875304      31.22619160      21.54498407 
Au      15.32807344      24.08957759      19.93888150 
Ag      21.44013586      17.13631614      31.45985989 
Ag      21.19936625      32.11509707      23.19194744 
Ag      14.09459899      24.48226227      25.45796196 
Ag      22.30056607      22.92649283      14.93034482 
Ag      30.59197529      26.73182316      19.57049194 
Ag      18.31553694      19.48954490      17.79911427 
Au      22.84981599      18.33842328      16.33878940 
Ag      15.52998534      17.46469876      26.11584937 
Ag      30.24760448      29.95583661      28.02425452 
Ag      29.81835767      18.44785594      19.82018827 
Ag      13.72425252      21.59655462      22.60741931 
Ag      30.34979290      17.74594824      30.84237076 
Ag      26.71918482      16.02771337      18.57905616 
Ag      20.71862426      32.30551147      26.34107169 
Ag      19.28825381      27.74994325      17.13625954 
Ag      25.80278715      18.03854186      16.69035660 
Ag      14.50455374      19.53675300      24.45739736 
Ag      19.15176560      33.17374386      21.00561963 
Au      23.88532295      22.29459415      12.50665736 
Ag      34.44469330      22.47954977      27.56368141 
Ag      29.11230791      32.50902582      29.00462812 
Ag      19.20285545      31.12926069      16.66790917 
Ag      23.76208327      15.25574357      18.78361955 
Ag      13.87056640      27.00687701      19.45474550 
Ag      20.86758048      26.69058630      34.15747098 
Ag      19.77490601      28.67988548      32.10178361 
S      20.69299607      15.82011369      33.47212212 
S      28.38847518      32.60182144      19.58740866 
S      24.14177858      22.75577666      35.62938810 
S      24.34337828      18.16904534      35.51275170 
S      12.43326949      18.11504448      24.31398846 
S      32.25231956      17.44187021      29.36631854 
S      31.48400803      14.84184184      21.47049887 
S      29.54292453      18.76590423      16.63097948 
S      28.29575410      21.88455824      33.29380786 
S      22.98837578      27.74581203      34.72900430 
S      13.42380384      30.03997523      24.78290170 
S      16.32828960      18.10064485      17.25235617 
S      32.73987251      23.14959954      19.97755992 
S      26.78816401      30.81277006      33.49212845 
S      22.85703653      32.49279257      32.68548856 
S      17.06987514      31.73017638      17.62607247 
S      11.33128916      22.24027440      22.83078836 
S      25.04580956      13.19557162      26.90023963 
S      33.83821297      29.09623168      27.46984755 
S      28.63567289      26.55279294      33.26632912 
S      23.93148112      24.58953501      11.94541957 
S      27.63496421      25.70485110      13.27885868 
S      19.01564260      33.31982415      30.36814466 
S      28.82050767      17.54668800      32.70202719 
S      21.22365339      34.09393354      24.71037155 
S      31.06723034      32.24760327      27.54774776 
S      28.92995381      29.13254171      16.44295509 
S      33.51898195      17.30903225      23.84666815 
S      34.90232472      21.87858686      23.62230970 
S      19.37197250      13.64031766      25.66501748 
S      20.77377193      33.68476841      19.27331362 
S      12.70769284      19.36012200      19.69196509 
S      18.66941111      30.32554699      33.56291653 
S      31.68025921      30.94513622      23.17804120 
S      35.23177446      27.14811101      23.41417749 
S      31.01026783      30.31998986      31.23974364 
S      23.25373061      13.25858411      23.31338640 
S      32.19379064      19.22986435      19.71844234 
S      28.61921723      14.71259314      17.69552611 
S      15.32459630      30.48564962      29.13427971 
S      31.66373841      21.85493860      31.15097626 
S      20.54929059      26.79058016      14.26305354 
S      17.04271268      27.03546573      16.33181636 
S      27.45417576      12.89357390      21.94427731 
S      16.88733270      33.61126379      26.20891036 
S      15.15310436      21.65408656      30.98624307 
S      21.07833957      16.71186791      15.78840980 
S      24.70247329      29.00723332      13.49248897 
S      20.00925114      22.22699901      14.16061241 
S      21.11093446      31.22578863      15.21147012 
S      23.62606478      34.00292758      28.21099176 
S      13.66258164      17.42789758      28.86019822 
S      24.23891582      33.59277399      22.03948813 
S      27.55275767      20.92427909      13.03468530 
S      16.38457229      23.01605512      16.76170148 
S      26.00455244      16.71938028      14.54793742 
S      16.99963728      14.38780116      30.06756817 
S      28.63787157      14.02127384      29.84720804 
S      27.64164281      33.56918786      30.63356794 
S      32.73183039      28.02253313      19.63014459 
S      25.00324596      14.78129812      32.78250347 
S      14.20048968      29.38879331      19.45431992 
S      13.36637134      25.84753750      27.43085227 
S      34.69670910      20.09055099      27.78246733 
S      30.33637395      23.32589512      16.12989446 
S      18.60869286      25.76601254      34.43952843 
S      35.08102224      24.78759388      27.37044854 
S      19.97068672      20.77421938      34.63801313 
S      32.24076495      25.85352169      30.41143655 
S      23.63549511      19.95865126      12.69919678 
S      17.10173133      33.38042086      22.31915713 
S      15.62165342      26.30946006      30.58716872 
S      11.91615687      26.87593704      23.21769800 
S      24.43922865      13.25349847      17.48499404 
S      13.07976272      24.73950932      19.18677861 
S      21.60313424      13.71603052      29.37826610 
S      16.82280129      17.56426085      32.50337187 
S      15.95764068      15.69523857      21.37210650 
S      14.94877760      15.07350989      25.80077627 
S      25.24121625      32.78461153      16.25726299 
S      29.74986490      13.62290413      26.06660957 
S      20.26948611      13.80459149      19.41457828 
S      26.99929097      33.64124953      25.65930102 
S      12.87813613      21.73680916      27.03383335 
C      21.25676967      14.08180408      33.27933626 
C      30.14222295      33.07671160      19.86845116 
C      23.60431591      24.10501657      36.75393093 
C      23.65321828      18.97018219      37.01670274 
C      10.99628725      19.05372376      24.96994258 
C      32.48982654      15.63032395      29.17344433 
C      31.43920024      13.01507594      21.68540883 
C      31.15481760      19.30793828      15.93323817 
C      28.18322044      22.83384002      34.86193763 
C      22.65487824      29.19367779      35.81105834 
C      13.33041962      31.82983851      24.36836091 
C      16.89479058      16.71341076      16.18364177 
C      33.36616911      24.07987959      18.52293168 
C      26.55314713      32.57245406      33.94294013 
C      22.43797835      34.15560336      32.02335841 
C      17.18620916      33.56715125      17.62412345 
C      10.64081280      22.19350746      21.12718404 
C      26.48944321      12.17213800      27.38644653 
C      34.86585825      28.32012078      28.77710548 
C      28.23939059      27.64573448      34.69130322 
C      22.70855162      24.72594075      10.57497357 
C      27.14079394      26.39548312      11.65095256 
C      17.48870889      33.10022445      31.36941958 
C      29.60323220      18.39643596      34.13182376 
C      19.76593682      35.18147736      24.47047615 
C      32.56132162      32.51456481      28.58262745 
C      28.88560480      30.09170719      14.87561505 
C      34.49329030      16.74963730      25.30242550 
C      35.75199731      21.96453314      21.99501137 
C      17.80788436      12.76616659      25.25642338 
C      21.61807022      35.23253093      19.79277649 
C      12.68089626      17.77852321      18.75422491 
C      18.76889358      29.70578266      35.29160211 
C      33.35575426      31.50965148      23.67806824 
C      35.72760538      28.55497374      22.34260391 
C      31.98805070      30.09805025      32.78741991 
C      21.82461123      12.16624632      22.93857673 
C      33.32804851      17.85758281      20.15944987 
C      28.16257431      12.94775240      17.95176544 
C      14.00174684      29.77210019      30.19340861 
C      33.03386388      20.63723713      31.10680160 
C      19.27599292      26.01401728      13.19473674 
C      15.90337523      28.47126506      16.30234354 
C      26.43037705      11.40434507      22.28002033 
C      15.21599211      33.94139255      26.89772224 
C      14.93533713      20.72810713      32.55658920 
C      21.76041033      15.54074660      14.55240471 
C      23.17218731      29.34543997      12.53406395 
C      20.08421021      20.88505392      12.90783705 
C      21.53540388      33.01376818      15.30216629 
C      24.00848729      35.40851895      27.09961162 
C      12.16844229      17.74172380      29.89231429 
C      25.74910352      34.63712929      22.07981550 
C      29.27126085      20.78145071      12.38996272 
C      16.39334795      21.85902564      15.33686686 
C      27.76186338      16.27080391      14.24804434 
C      16.48015502      12.62228007      30.13127530 
C      29.82172255      13.90198689      31.25091161 
C      28.18229414      35.32744997      30.69289952 
C      32.71822409      29.18873618      18.20873531 
C      26.08492675      15.07763200      34.24173442 
C      12.85958515      30.15055971      20.45528130 
C      12.05224732      27.03929990      26.96591838 
C      36.19341617      19.80819733      26.74869653 
C      30.80555762      24.37959730      14.69695896 
C      18.73909133      24.56225250      35.82176617 
C      36.46640562      24.67313940      26.16409383 
C      19.86786884      19.48944624      35.94596456 
C      32.46975141      25.54856580      32.20971777 
C      24.76248173      19.18840867      11.47460146 
C      15.73679557      33.52381343      21.09790717 
C      15.20166408      25.58791786      32.22278253 
C      10.71133066      27.35609981      21.91716675 
C      22.96785525      12.51998544      16.66280670 
C      12.99351439      24.45428460      17.37473938 
C      21.58297772      12.15109896      28.41767740 
C      16.77510643      15.93419526      33.33827469 
C      14.21190201      15.12024212      21.31325360 
C      13.16564005      14.89587989      26.20244266 
C      26.93303024      33.40915622      15.91338195 
C      31.47882458      13.35287480      25.49936706 
C      18.52491287      13.32925823      19.08394732 
C      28.65417405      34.42602775      25.75821897 
C      12.02013307      22.27724452      28.56705560 
H      22.31824633      14.02940285      33.01260209 
H      21.08784309      13.56001014      34.22828127 
H      20.65721987      13.61889655      32.48600198 
H      30.59503736      33.36472240      18.91357227 
H      30.13497888      33.93998649      20.54522129 
H      30.71192086      32.26308542      20.33075644 
H      24.50813389      24.63071396      37.08529712 
H      22.94324391      24.81255134      36.24179345 
H      23.09673191      23.66225680      37.61810529 
H      23.37098311      18.19670510      37.73921839 
H      24.44268537      19.60182970      37.44076767 
H      22.78899404      19.60082650      36.78102441 
H      11.06487911      19.05204317      26.06452973 
H      10.98872970      20.08854179      24.61163991 
H      10.07999472      18.54245205      24.65374182 
H      33.23648981      15.47680903      28.38523490 
H      32.87073758      15.22811839      30.11926454 
H      31.55758055      15.12356627      28.89869665 
H      30.41548534      12.64785647      21.81863310 
H      31.88772815      12.55129341      20.79966531 
H      32.03903466      12.76163251      22.56714130 
H      31.12703023      20.36941412      15.66063820 
H      31.92413282      19.15304903      16.70048543 
H      31.37633141      18.69698767      15.05059618 
H      27.89621155      22.14965044      35.66827748 
H      29.17026638      23.26335782      35.06875226 
H      27.44347776      23.63898466      34.77915647 
H      22.02740419      29.94083128      35.30839632 
H      22.16328091      28.85318826      36.72956524 
H      23.61922891      29.65073495      36.06286885 
H      12.74880892      32.34933008      25.13820563 
H      14.32617431      32.28005138      24.28852116 
H      12.81490168      31.91972491      23.40447090 
H      16.97573289      17.09424858      15.15875647 
H      17.87123231      16.32975961      16.49979176 
H      16.14990518      15.91048463      16.21579637 
H      32.55795474      24.64264188      18.04050684 
H      34.15575719      24.76575828      18.84843336 
H      33.77189642      23.35141840      17.81091766 
H      26.93900084      33.23030572      33.15684271 
H      25.48018184      32.75209840      34.08260701 
H      27.09264057      32.74689832      34.88166147 
H      21.56025645      34.12186506      31.36931910 
H      22.23955929      34.82093254      32.87143126 
H      23.30304670      34.52091627      31.45639248 
H      16.33982083      33.96463025      18.19596187 
H      18.12560509      33.91631568      18.06691090 
H      17.11336519      33.91466053      16.58737464 
H      11.28541627      22.73147410      20.42357204 
H      10.56676837      21.14145034      20.82538713 
H       9.64468613      22.64939280      21.14471682 
H      27.38691083      12.77236402      27.56076580 
H      26.23499990      11.63223850      28.30581383 
H      26.68506627      11.45488609      26.58034054 
H      35.87596112      28.74119221      28.72343599 
H      34.40698665      28.57152047      29.74124551 
H      34.90298433      27.23081511      28.66332901 
H      28.25601838      27.03214943      35.59992462 
H      28.99968598      28.43204557      34.76692948 
H      27.25581608      28.11305713      34.58308598 
H      22.63642624      25.78418879      10.29676437 
H      23.07226369      24.14679481       9.71866334 
H      21.72494504      24.35743667      10.88181551 
H      26.27240105      25.86478313      11.24698725 
H      26.88797744      27.45339358      11.78831642 
H      27.99259072      26.29961367      10.96788731 
H      17.79082164      32.88992151      32.40241315 
H      16.91495335      34.03249394      31.32729700 
H      16.88200736      32.27124674      30.98792442 
H      30.53735633      17.88498757      34.38824533 
H      29.79263554      19.45170945      33.90652836 
H      28.90372599      18.32950041      34.97367232 
H      18.84469625      34.61366675      24.31271615 
H      19.65049931      35.80818152      25.36216104 
H      19.95760507      35.81588144      23.59672210 
H      32.39560602      32.15275528      29.60337279 
H      33.39567488      31.96402648      28.13240476 
H      32.78076455      33.58833896      28.59360030 
H      29.64829719      30.87779437      14.90366212 
H      29.11537297      29.38669043      14.06708625 
H      27.89326421      30.52778607      14.70356516 
H      34.23882940      15.69875162      25.48504603 
H      35.56058649      16.82598872      25.06570505 
H      34.26719335      17.33983709      26.19795866 
H      35.03427395      21.87561070      21.17176002 
H      36.24777723      22.94077574      21.93478149 
H      36.50156999      21.16797272      21.93593899 
H      17.37897508      12.35395223      26.17750235 
H      17.07571442      13.43466779      24.79379272 
H      18.04932849      11.94728679      24.56842054 
H      22.34718224      35.48353377      19.01311278 
H      20.88065816      36.03802342      19.87799091 
H      22.14514616      35.09400995      20.74339591 
H      13.05623293      17.98282669      17.74494484 
H      13.31389232      17.01408005      19.21626469 
H      11.64588708      17.42207149      18.70486422 
H      18.62086944      30.54966209      35.97457422 
H      17.96656624      28.97129675      35.42612672 
H      19.72820595      29.22193791      35.50058928 
H      33.94973258      30.68430019      24.09059927 
H      33.86545278      31.95404107      22.81599245 
H      33.21150696      32.27209612      24.45373672 
H      35.93965244      28.13904126      21.35035281 
H      34.92454719      29.29391475      22.24951561 
H      36.62980850      29.02160785      22.75257015 
H      31.63681067      29.23064505      33.35520444 
H      33.04090009      29.95591532      32.51649644 
H      31.88993334      31.00328129      33.39762061 
H      21.85141465      11.33007386      23.64748377 
H      20.87851159      12.70797625      23.05829062 
H      21.91469460      11.78960386      21.91407139 
H      33.42842277      17.20687636      19.28295607 
H      34.30579721      18.28281591      20.41536158 
H      32.96217960      17.26469633      21.00256936 
H      27.34994720      12.69423770      17.26055370 
H      29.04245738      12.33182479      17.73450440 
H      27.83084505      12.76888274      18.98075760 
H      13.03733584      30.21482059      29.92150105 
H      13.96224530      28.68116245      30.09845661 
H      14.24034176      30.02906857      31.23261094 
H      32.89526383      19.92688767      31.93086236 
H      33.07531890      20.08813719      30.16210934 
H      33.97716192      21.17870161      31.24410942 
H      19.42078102      24.92878764      13.13785689 
H      18.29254103      26.23379581      13.62929883 
H      19.35254762      26.46132148      12.19645373 
H      15.97822793      29.08134265      17.20717194 
H      16.15429374      29.09209281      15.43450649 
H      14.87595954      28.10059098      16.20408838 
H      27.06309763      10.61491591      22.69976274 
H      25.60691480      11.63944606      22.96367129 
H      26.01522491      11.07141364      21.32114894 
H      14.53306150      34.06958510      26.04974885 
H      14.87243251      33.11623975      27.53170198 
H      15.25282659      34.87025137      27.47756214 
H      14.59869642      21.44532524      33.31501680 
H      14.17094211      19.95447783      32.41707680 
H      15.86650597      20.25533397      32.88255981 
H      21.89284140      16.10269803      13.61993325 
H      22.73087472      15.13914262      14.87272533 
H      21.04547721      14.72546215      14.39454745 
H      22.37277518      29.73022248      13.17726922 
H      23.40627837      30.07289198      11.74883380 
H      22.85548068      28.39731759      12.08219735 
H      19.05734047      20.55998342      12.70238686 
H      20.53821575      21.27569234      11.98980990 
H      20.67803685      20.03627147      13.25993938 
H      22.54025264      33.15205202      14.88553875 
H      20.80491221      33.57245943      14.70631848 
H      21.51846334      33.37160627      16.33774609 
H      24.05631332      36.32043879      27.70552616 
H      24.95778664      35.24179737      26.57632420 
H      23.18704671      35.47355712      26.37403019 
H      12.06391903      16.92402162      30.61464920 
H      12.24808240      18.69431021      30.42541635 
H      11.29015802      17.76204974      29.23649968 
H      26.04149688      34.88915865      21.05482754 
H      25.50635175      35.55093063      22.63502359 
H      26.57138263      34.11615596      22.58567272 
H      29.99658802      21.21341677      13.08716867 
H      29.49494083      19.71787908      12.24467608 
H      29.33212642      21.29796959      11.42541695 
H      15.46628807      21.27538656      15.35303956 
H      16.44784256      22.45464205      14.41812291 
H      17.25629801      21.18359787      15.37557769 
H      28.26293071      15.95689354      15.17041655 
H      27.78769690      15.45811363      13.51329438 
H      28.27074331      17.15338272      13.84155041 
H      15.38838113      12.60132734      30.22948568 
H      16.77822553      12.08361121      29.22708148 
H      16.93721054      12.15303336      31.00994491 
H      30.82379443      13.73522617      30.83928762 
H      29.82113592      14.81243594      31.86080020 
H      29.53925391      13.04226586      31.86902077 
H      28.24246752      35.76230676      29.69111039 
H      27.46745591      35.89436164      31.30023238 
H      29.17069643      35.35455573      31.16646517 
H      33.03376572      28.61934607      17.32589442 
H      31.71824639      29.59975271      18.03246387 
H      33.43457107      29.99550472      18.39835424 
H      26.86042317      15.81859114      34.01668683 
H      25.46341605      15.44336768      35.06781055 
H      26.55158727      14.12551623      34.51841619 
H      12.85315476      29.77425254      21.48452167 
H      13.04094146      31.23214647      20.46602058 
H      11.89438544      29.95121942      19.97693204 
H      12.22051530      27.48216199      25.97996139 
H      11.10270043      26.49042827      26.95425343 
H      12.01333978      27.82762984      27.72699911 
H      36.10898645      20.29254895      25.76970483 
H      37.06182844      20.20550750      27.28600657 
H      36.31676674      18.72752221      26.61352651 
H      30.16224143      25.26099704      14.61720440 
H      31.84793967      24.68981904      14.83675265 
H      30.71944979      23.79544442      13.77316344 
H      19.57579007      23.87043679      35.67685555 
H      18.87138764      25.12290749      36.75442683 
H      17.80390206      23.99196458      35.86568541 
H      36.69027921      25.68396084      25.80189012 
H      37.34057390      24.26055107      26.68004320 
H      36.20247053      24.03343837      25.31431177 
H      19.97051008      19.96125633      36.92952437 
H      18.87632953      19.02810413      35.86157334 
H      20.63624755      18.71692473      35.81511581 
H      32.56666250      24.46533724      32.35740038 
H      33.38650546      26.05408558      32.53393491 
H      31.61171093      25.91867263      32.78268018 
H      25.75489733      19.65106435      11.50640256 
H      24.84644927      18.12771867      11.74140203 
H      24.31951582      19.29134211      10.47780596 
H      14.79094881      33.39461347      21.63733100 
H      15.76969118      34.52683794      20.65682922 
H      15.81450990      32.76586191      20.30955250 
H      15.22421547      26.38202704      32.97732191 
H      14.19149856      25.16794099      32.15153284 
H      15.91080169      24.79947804      32.50265478 
H      11.00030930      26.96321238      20.93616396 
H       9.72230342      26.97600472      22.19583585 
H      10.68483189      28.45176665      21.88521069 
H      22.54586426      11.77688854      17.34956909 
H      22.20166850      13.27400143      16.45108090 
H      23.28182134      12.02993634      15.73471660 
H      12.76482078      23.39361007      17.21665888 
H      12.18746693      25.07335672      16.96524099 
H      13.94472103      24.69004144      16.88600627 
H      22.60642213      11.98886391      28.05500539 
H      21.28221558      11.33348026      29.08163985 
H      20.89813871      12.22563546      27.56449549 
H      16.65693945      15.12645232      32.60828520 
H      17.71390834      15.79981019      33.88935716 
H      15.92609675      15.94570562      34.03229772 
H      13.50718374      15.95940857      21.36808540 
H      14.04450028      14.55212760      20.39114865 
H      14.05311001      14.46626306      22.17928179 
H      12.94102589      13.82645937      26.28612965 
H      12.92760766      15.40699612      27.14200094 
H      12.58190368      15.34352892      25.38978359 
H      27.68948385      32.63390118      16.07699702 
H      26.97944235      33.77773571      14.88301268 
H      27.11641495      34.23272258      16.61386194 
H      31.76440580      14.05695213      24.70954541 
H      32.13571125      13.49374094      26.36601659 
H      31.57830662      12.32437203      25.13464858 
H      18.44706229      12.92369903      18.06953096 
H      18.26474379      12.55055985      19.81137673 
H      17.84379470      14.17795696      19.21112155 
H      28.74617400      35.11334066      24.90832312 
H      28.72583381      34.99335337      26.69411898 
H      29.46245299      33.68939402      25.72586098 
H      11.88332495      23.36443574      28.51257399 
H      11.04445081      21.78011458      28.61311729 
H      12.61082352      22.03196606      29.45763844 
