699
Properties=species:S:1:pos:R:3 i=162 optimized=T E=-11498.0695834853 pbc="F F F" jobid=279_84-Ag-69_9-000007-PBE
Au      33.16047326      25.44277509      25.91599473 
Au      32.06832868      29.30562565      21.46155462 
Au      34.49542236      28.23320655      25.45472388 
Ag      30.03052297      15.20868596      19.79102978 
Au      34.11670465      19.73654589      23.74763015 
Au      27.39449477      23.44887123      13.13989706 
Ag      18.29996539      33.18335158      28.29751171 
Ag      28.41021350      30.61817112      18.19767352 
Ag      24.96757985      21.23634403      23.25552620 
Au      26.29895073      23.24564056      24.91119741 
Ag      28.18824788      25.09431227      23.61946089 
Ag      23.82010614      21.61390253      29.01752501 
Au      23.37186575      27.86493260      26.94053009 
Ag      26.90456596      23.05596560      21.99578791 
Ag      22.42629442      19.54728545      27.36416074 
Au      27.21848440      21.12137159      26.71996798 
Ag      22.06490904      21.49962888      22.74414574 
Ag      21.02030024      23.55601134      20.89349404 
Ag      27.66405619      25.27830875      26.56737519 
Ag      20.00638966      24.02482358      26.67952662 
Ag      25.50169885      21.06813327      20.36857551 
Au      24.33285525      25.73207989      28.78195760 
Ag      23.84387525      27.68896023      24.06717065 
Ag      26.23268098      27.59758607      27.57110274 
Au      20.95046826      21.88823135      28.39151362 
Ag      22.90457917      23.70294837      27.18908413 
Ag      21.51448885      21.66715511      25.59209011 
Ag      19.55390257      19.79857636      26.83453698 
Ag      25.88124731      19.10728250      25.09895309 
Au      25.25549647      23.62552934      30.73069243 
Au      22.95701194      25.35167223      19.56530284 
Ag      20.95530984      27.93451291      23.53758829 
Ag      26.66269753      27.35738757      24.71280175 
Au      22.58305208      21.34537932      19.88058763 
Ag      21.95166672      25.85411791      25.34065380 
Ag      27.18835181      25.48350487      29.45123236 
Ag      20.18952088      19.65987108      24.02938386 
Au      25.84950933      25.08788962      20.17633143 
Au      23.56523065      19.22395335      21.66955115 
Ag      22.36976828      23.92544810      30.05391815 
Ag      21.07369097      17.46432144      25.80187381 
Au      21.50036856      27.61298622      20.64433305 
Ag      24.36786478      27.41728546      21.23024993 
Ag      24.49511099      23.11788498      18.53992617 
Au      28.63192934      23.17569058      28.45478074 
Ag      18.64918396      21.97429046      25.11296312 
Ag      26.71941526      21.27778660      29.61362504 
Ag      22.42436709      30.04249552      25.13346577 
Au      27.18282775      27.10662343      21.82361373 
Au      21.85383801      19.74545992      30.23433972 
Ag      18.51669215      26.40875067      27.71934839 
Ag      23.22491676      21.75058134      31.87917001 
Ag      21.54313575      23.34037848      17.97382457 
Ag      17.12839025      24.34897056      26.20568024 
Ag      27.43591635      22.83558548      19.09902222 
Ag      23.91493995      17.19063343      26.34005697 
Ag      23.34338825      17.46166242      29.21925079 
Ag      25.25974612      29.75120734      25.69725072 
Ag      21.73367523      17.22276157      22.91025341 
Au      28.82357554      18.82908563      25.68607010 
Au      22.82210724      29.77090437      22.25169031 
Ag      25.31301501      25.32595795      23.07324608 
Ag      20.04651603      25.60541648      19.01132076 
Au      29.52990946      27.12740928      25.33918097 
Au      19.43287267      24.25213523      29.57729671 
Ag      18.05365746      22.20437116      27.95347385 
Ag      20.03947210      28.31868671      29.31409401 
Ag      23.79585044      25.93169240      31.67234361 
Ag      20.94701206      26.27512407      31.15250443 
Ag      26.43959418      18.99105190      22.16564234 
Ag      24.70654362      19.52960227      30.81412906 
Ag      20.45209898      17.65205837      28.66029383 
Au      28.84541340      24.85585056      20.72197408 
Ag      19.57864446      30.27525467      24.64255695 
Au      25.67159551      29.57526266      22.81582341 
Ag      24.88359112      27.16218553      18.28756421 
Ag      28.43454264      20.77936815      20.90781637 
Ag      29.07498381      27.39916945      28.18517022 
Au      30.11041839      20.94066713      27.25355754 
Ag      18.14014158      23.84509739      20.38752005 
Ag      17.81866427      19.62346288      20.74549405 
Ag      25.68826669      27.77669544      30.45798403 
Ag      28.16255427      23.32187465      31.28619934 
Ag      21.94867911      30.14991889      28.05330249 
Ag      21.82118945      24.10076925      32.87039553 
Ag      18.64021073      27.89275022      20.13935616 
Ag      16.34531117      21.96535121      21.72953447 
Ag      30.54585780      25.06364486      27.10052952 
Au      23.41909850      23.52553162      24.32092415 
Ag      19.99645107      30.01298146      21.68222458 
Au      16.63770655      20.06681811      26.38305213 
Ag      26.76627878      17.02173992      26.89428470 
Ag      29.98289828      25.22493716      29.94297656 
Ag      17.63467932      28.50586257      25.94497332 
Ag      16.24616283      26.38750709      24.34040140 
Au      28.44479896      29.18669287      23.40580480 
Ag      27.78298165      26.90092971      18.98157377 
Au      24.12861269      19.04562177      18.72706857 
Au      27.41156161      16.83379024      24.01234464 
Ag      26.96315891      18.76951437      19.29007207 
Ag      26.06251165      21.41274532      32.55001370 
Ag      12.56725395      18.90598567      22.06012852 
Au      23.09794634      21.07066284      16.96006136 
Ag      26.27304857      29.19352498      19.86710591 
Ag      19.85971208      19.58057785      32.37920893 
Ag      26.15053690      17.16523255      29.78778477 
Ag      29.29375835      18.71254574      22.74523934 
Ag      27.65393770      29.68107563      29.20374282 
Au      15.30116762      22.49657979      27.40517654 
Ag      26.06930525      20.85697612      17.40490427 
Ag      24.59692683      23.80112561      33.47840017 
Ag      23.49532897      25.17043543      16.58855575 
Ag      17.58210501      17.98679516      28.09725565 
Ag      19.15091483      30.46198136      27.50291601 
Ag      23.44380525      29.46503824      19.38675412 
Ag      22.44000656      25.60096442      22.46623109 
Ag      16.17717440      20.26921548      29.30573539 
Au      27.50789851      19.14046932      31.34702610 
Au      29.11352729      28.91472460      20.55164995 
Ag      16.52295042      24.50015176      29.03810463 
Ag      31.98038609      22.82954525      26.00920376 
Ag      16.64275283      21.59279527      18.94093709 
Au      24.82477577      31.59603737      20.72878216 
Au      21.89298994      31.74275346      20.37831192 
Ag      20.59937395      25.35440064      16.19908322 
Ag      24.30816585      31.92095348      23.85434062 
Au      20.56247992      29.68267561      18.78897490 
Au      23.17237201      14.97886041      21.56736825 
Ag      30.33020138      22.58489557      19.66139643 
Au      25.04873014      22.92660976      15.66809941 
Au      18.69361713      23.58414164      17.44865555 
Ag      28.85122315      20.61303016      18.05526398 
Ag      17.60285478      22.41427671      30.87076235 
Ag      17.21018355      28.73012261      28.82383992 
Ag      27.88939866      16.74154708      21.07780157 
Ag      15.63462859      26.84268290      27.14867939 
Ag      18.97410754      15.68727858      27.07971694 
Ag      19.68310828      15.41040225      24.07233507 
Ag      18.08714316      26.62270890      30.65777148 
Au      20.23943417      15.39643262      21.22066898 
Ag      27.22707309      31.57823702      24.35580902 
Ag      24.91553098      15.18837866      28.24762154 
Ag      23.96485839      23.31882848      21.43655609 
Ag      20.18741226      21.16105226      16.41137966 
Ag      27.86652261      22.78071694      16.02329435 
Ag      31.35986056      20.41628991      21.62639694 
Ag      26.76009298      31.73398965      27.39265984 
Ag      25.62579242      14.91686167      25.22212487 
Au      28.72932694      16.24911159      28.79054891 
Au      26.02417446      14.93352664      22.27840005 
Ag      32.60106250      22.64231186      23.20931105 
Ag      25.70977171      30.55863254      31.17611017 
Ag      22.91787716      30.69351479      30.75472981 
Ag      24.21543853      17.01092678      31.97312477 
Au      31.31092520      17.94219644      24.75134993 
Ag      17.07172895      25.94916727      18.59306662 
Au      31.59564831      22.89882054      28.79080607 
Ag      29.40876715      16.04295006      25.96343236 
Ag      15.56446163      29.24274792      24.08495318 
Au      16.03816235      28.91262640      21.17677845 
Au      17.14060364      31.31304881      25.64587391 
Ag      29.34170731      24.76481871      17.88990371 
Ag      30.76516615      18.09524912      27.65393083 
Ag      18.61027568      17.39125706      30.76909403 
Ag      24.04322729      19.62868638      33.56690979 
Ag      17.96227022      30.64106464      19.77283676 
Au      17.47427924      31.01245888      22.69120623 
Ag      14.14537069      27.08592993      22.52165269 
Ag      32.68349374      20.01363219      26.36983922 
Ag      24.82179236      25.54367898      25.94272354 
Au      32.86074457      26.69140599      23.11336050 
Ag      24.88297925      20.06293740      14.95230245 
Au      20.11550049      30.98686434      30.12781455 
Ag      31.78704482      27.75033222      27.01672991 
Ag      22.48860617      28.33365686      32.58961883 
Au      29.85421165      15.89125037      23.01885608 
Au      22.60032746      17.06654641      34.54523788 
Ag      13.95889371      19.57492776      27.53926245 
Au      24.09014038      27.83947132      15.65493779 
Ag      15.58267950      17.66886804      30.54762691 
Ag      25.58024473      25.63264722      14.67077958 
Au      29.08709100      30.48500277      31.95819726 
Au      22.63880781      30.05618926      16.76157319 
Ag      22.11482159      21.75389477      34.72068800 
Ag      31.22325417      28.08003339      30.01418219 
Au      19.21987566      14.43480810      29.71383378 
Au      22.50665236      25.40269201      13.30403144 
Ag      16.10994382      15.26484884      27.88203556 
Ag      24.71585541      32.68377669      29.41729057 
Au      26.68819858      14.52606638      31.05999705 
Au      28.59377690      13.38125361      24.14865540 
Au      16.20396906      17.05310178      19.23531531 
Au      16.13662643      17.69296283      22.65187838 
Ag      20.88589533      15.42950764      17.79489461 
Ag      11.98471723      24.59940405      23.03053487 
Ag      14.83712856      30.06252582      27.06727470 
Ag      24.37377233      21.37196879      26.14697563 
Ag      15.04083918      19.68273283      20.59528902 
Ag      25.29019036      31.07404857      17.96499797 
Au      28.24850865      20.17319982      14.68825817 
Ag      30.14068472      27.00104030      22.46024082 
Ag      31.00768497      24.87990739      24.19950412 
Ag      31.72512126      24.76383757      21.39347804 
Ag      20.54885664      23.79239192      23.80320346 
Au      25.28595934      14.87234343      16.09028513 
Au      30.72937548      29.65450013      24.99948948 
Ag      25.77226087      23.40643259      27.84014866 
Ag      26.93072314      27.66076298      16.37668880 
Au      21.08156484      31.01185937      33.31434699 
Ag      17.72975556      24.03153743      23.32278604 
Ag      23.02082961      19.34081748      24.51047825 
Ag      27.81405814      20.95616306      23.80995062 
Ag      19.56294447      25.85825420      21.96074588 
Ag      25.01522726      30.80069188      14.94400928 
Ag      25.25340559      19.27045507      27.95661379 
Au      19.07200294      26.11441657      24.86654551 
Ag      20.54235374      28.16151003      26.41416515 
Au      21.42132995      25.99924882      28.22442133 
Au      29.13620016      23.05196603      25.44849618 
Ag      19.21045374      21.74888990      22.21228259 
Au      24.57444080      17.08401837      23.48318532 
Ag      22.89770117      28.03292221      29.83225250 
Ag      20.72832256      19.45411499      21.15543886 
Ag      20.43560813      22.13589582      31.24037662 
Ag      24.79916061      29.89684283      28.59005365 
Au      18.05507583      28.25582652      23.02394986 
Ag      28.15711582      18.99623460      28.53308484 
Au      19.00054773      20.04748907      29.68885608 
Ag      29.78465541      22.75268768      22.57567824 
Ag      19.59367517      21.52585066      19.29888352 
Ag      18.23306586      17.75477461      25.20848983 
Ag      15.77389952      22.21667107      24.56432140 
Ag      16.68464216      26.13653927      21.43902526 
Ag      26.44789053      24.93285949      17.29930427 
Ag      28.09056872      29.45514472      26.28331726 
Ag      17.30688294      19.96775076      23.58892207 
Au      18.96093017      17.59961891      22.44316243 
Ag      30.71823917      20.75241109      24.37828914 
Ag      22.04345872      27.42046536      17.72758951 
Au      21.13518163      19.30375076      18.31348709 
Ag      22.21795497      17.16401560      19.90648444 
Ag      21.99286378      15.42958500      27.61727274 
Ag      19.02049137      24.42400748      32.38154017 
Ag      26.56587771      25.61639613      32.33711255 
Au      14.90266481      24.30075831      22.81969445 
Au      29.59981451      20.78686000      30.19979254 
Ag      23.86110482      31.96325302      26.70897147 
Au      22.54084840      15.18152999      24.81914742 
Ag      25.00955589      16.97631752      20.51962797 
Ag      28.50060918      27.67590822      31.06477906 
Ag      19.29066700      17.44160192      19.53315581 
Au      27.67465293      31.20091626      21.51654787 
Au      15.30953046      24.04173886      19.97784590 
Au      21.40082772      17.23223315      31.40955270 
Au      21.36613103      32.05859943      23.24621000 
Ag      14.21226133      24.59895398      25.51355451 
Au      22.28186355      22.99850275      15.02055564 
Ag      30.63680322      26.74792273      19.54869229 
Ag      18.33335621      19.44783213      17.81305765 
Ag      22.85792620      18.27028972      16.27496269 
Ag      15.51647310      17.50140588      25.90789112 
Ag      30.33215438      30.03873439      27.92108876 
Ag      29.80598805      18.39507042      19.85804522 
Ag      13.66205782      21.73301509      22.54397400 
Ag      30.32910257      17.73601416      30.83158140 
Ag      26.75965650      15.95625225      18.54264734 
Ag      20.97726162      32.37981381      26.36900599 
Ag      19.11616335      27.86200990      17.25075641 
Ag      25.80315903      17.99132761      16.71335074 
Ag      14.53943950      19.60653685      24.29060202 
Ag      18.90758628      33.20923214      20.86802414 
Au      23.77599047      21.97352448      12.58989644 
Ag      34.41016796      22.61041504      27.62171372 
Ag      28.66769425      32.60384695      29.43462502 
Au      19.30749791      31.24811534      16.56659825 
Ag      23.81071124      15.02229968      18.84329775 
Ag      14.11407937      27.09746301      19.49542538 
Ag      20.63019130      26.41979534      34.33551694 
Ag      19.60193932      28.60213180      32.07246380 
S      20.78540870      16.00498059      33.48223422 
S      28.43474878      32.59369869      19.65353316 
S      24.12739932      22.73482206      35.66639776 
S      24.37643865      18.19703174      35.59739236 
S      12.41268808      18.24190097      24.36377105 
S      32.32716919      17.48932393      29.47358953 
S      31.58217184      14.87673977      21.62763527 
S      29.61301487      19.05368265      16.25801549 
S      28.32465911      22.01019274      33.41628774 
S      22.80366951      27.36368883      34.87135056 
S      13.46022727      30.08316827      25.06744296 
S      16.33836593      18.12033599      17.13108154 
S      32.78518733      23.05769526      19.91116875 
S      27.10045355      30.66124921      33.21027642 
S      23.18993742      32.00289125      32.93215095 
S      17.17050627      31.41512867      17.53853604 
S      11.26755920      22.30342991      22.74504217 
S      25.02601284      13.13669306      26.85835766 
S      33.80237965      29.24581227      27.46303564 
S      28.72027433      26.44195878      33.24787527 
S      24.07556729      24.23526212      11.94407074 
S      27.64000289      25.79100320      13.25032929 
S      19.33920287      33.27263855      30.47858308 
S      28.76750673      17.51360948      32.70111320 
S      21.09867679      34.11920036      24.50078392 
S      30.58224034      32.49753979      27.94466818 
S      28.92024353      29.13160241      16.33700448 
S      33.55321450      17.45107226      23.89759179 
S      34.97011703      21.92688983      23.58118210 
S      19.26989983      13.59053036      25.69622320 
S      20.75965444      33.66354382      19.38189204 
S      12.70510317      19.49625496      19.72978954 
S      18.88471394      30.26545422      33.77849650 
S      31.75799804      30.92429068      23.18455454 
S      35.22912838      27.23661434      23.44071006 
S      31.28924322      30.31447038      31.13032232 
S      23.09485409      13.26737320      23.35457175 
S      32.15875834      19.15463187      19.61484510 
S      28.80023175      14.76301302      17.77311526 
S      15.60655262      30.55296169      29.31687246 
S      31.61899643      21.89487612      31.06254274 
S      20.72369279      26.72838882      14.12500303 
S      17.03577878      26.92137894      16.29017703 
S      27.40555567      12.91126968      22.15928390 
S      16.83634320      33.62835367      26.43000160 
S      15.21888753      21.76299182      31.12038361 
S      21.12128636      16.61312796      15.69363203 
S      24.70810886      28.90683157      13.48661125 
S      19.97233224      22.41633186      14.26086910 
S      21.26884883      31.43878995      15.26531013 
S      22.69776770      33.66070755      28.17457368 
S      13.71659331      17.59075489      28.99670407 
S      24.44054483      33.65470032      22.00630842 
S      27.27668624      21.11823089      12.73639579 
S      16.39164865      22.91278190      16.82112005 
S      26.02231353      16.58137763      14.64780826 
S      16.88432275      14.58793935      30.09512841 
S      28.63321809      14.01572569      29.82839278 
S      26.74502915      33.72210337      30.43534442 
S      32.75809213      28.06155641      19.55288980 
S      24.94806663      14.71664901      32.62381976 
S      14.32389272      29.53007533      19.54907157 
S      13.30675192      25.96424423      27.37113441 
S      34.68066707      20.21997525      27.83206143 
S      30.33524793      23.37514316      16.11377511 
S      18.35915073      25.57131154      34.46933364 
S      35.07509047      24.92190511      27.33841421 
S      19.90599086      20.76897376      34.55123345 
S      32.32203083      25.88879431      30.43406205 
S      23.47684626      19.65522112      12.92853909 
S      16.87266547      33.33510838      22.18526753 
S      15.62287699      26.27737851      30.55978674 
S      11.70359314      27.00435346      22.95582378 
S      24.53072965      13.09673283      17.44013512 
S      13.17124953      24.89828992      19.10690046 
S      21.49680536      13.84204521      29.47770295 
S      16.94589160      17.75328279      32.57252134 
S      15.81720169      15.75051703      21.17895065 
S      14.84119240      15.13726169      25.80940677 
S      25.40725474      32.80818079      16.20563258 
S      29.86565263      13.58846995      26.12311061 
S      20.24229782      13.72803670      19.41889611 
S      26.81421049      33.61998619      25.71352352 
S      12.96381550      21.81592184      27.08073009 
C      21.24522014      14.23992224      33.30625276 
C      30.22160539      32.90190347      19.95350564 
C      23.57384466      24.02107309      36.85967567 
C      23.64964849      19.05305665      37.05068708 
C      11.00910151      19.22929660      25.02143637 
C      32.62180629      15.68435439      29.29351246 
C      31.53628165      13.04650532      21.80161229 
C      31.30497169      19.63259555      15.84090800 
C      28.07903191      23.03493639      34.91916418 
C      22.56512151      28.66947069      36.14667099 
C      13.37194691      31.84516936      24.54935237 
C      16.93172575      16.82870457      15.96493130 
C      33.43282330      24.02060010      18.48198894 
C      27.03435247      32.37435719      33.86585242 
C      22.77434156      33.74888267      32.53616821 
C      16.87459702      33.22821724      17.52288043 
C      10.60438458      22.34041181      21.02785179 
C      26.50805713      12.17262938      27.34987260 
C      34.86395861      28.48400388      28.75178934 
C      28.39511922      27.52813469      34.69320479 
C      23.28132539      24.35172381      10.28719773 
C      27.10366003      26.41759077      11.61164973 
C      17.87774907      33.14240004      31.58609173 
C      29.49950834      18.44701159      34.10276383 
C      19.44308027      34.82590560      24.17974457 
C      32.10971395      32.97543766      28.84181942 
C      28.85313971      30.09318098      14.77251714 
C      34.51675335      16.80799141      25.32219915 
C      35.83476418      21.99705022      21.96255630 
C      17.67283329      12.77833327      25.29302756 
C      21.57612630      35.13593550      20.11772592 
C      12.54782637      17.96645411      18.72354282 
C      18.88635457      29.52982593      35.45796962 
C      33.44366479      31.40496566      23.71711947 
C      35.68897992      28.58502916      22.28647855 
C      32.28004703      29.96052160      32.64196009 
C      21.60145504      12.24943805      23.06426224 
C      33.30874734      17.81639387      20.11601173 
C      28.40379442      12.97411871      17.95141398 
C      14.32999573      29.87850930      30.45423219 
C      33.00205330      20.70236506      31.17077237 
C      19.27756018      26.09905278      13.18276317 
C      15.79782959      28.26581697      16.11814428 
C      26.33177456      11.47589199      22.54966555 
C      15.20657001      33.85744491      27.24638543 
C      14.99798087      20.93390260      32.74506791 
C      21.79914177      15.43634217      14.45707707 
C      23.15660012      29.28796707      12.58288789 
C      20.06653597      21.25424841      12.84329727 
C      21.75484338      33.18484504      15.56031774 
C      23.17245187      35.28284002      27.44817615 
C      12.25607165      18.01267592      30.03864618 
C      26.02608550      34.56536115      22.07941255 
C      28.59981590      20.80845192      11.49303436 
C      16.45211282      21.76153753      15.39717913 
C      27.78989795      16.20310707      14.32911242 
C      16.38374033      12.82140516      30.25800088 
C      29.88270958      13.88042520      31.16846525 
C      26.77529758      35.37143366      29.61698928 
C      32.64708925      29.24042331      18.14776861 
C      25.89297457      14.94265683      34.18488242 
C      12.87476404      30.12810862      20.50737082 
C      12.06010832      27.12651807      26.69513197 
C      36.24273543      19.91555316      26.91025525 
C      30.81852897      24.45540364      14.70747743 
C      18.33291093      24.32029714      35.81856951 
C      36.50981267      24.79603112      26.19745750 
C      19.78642548      19.49499154      35.87093262 
C      32.48854307      25.68280071      32.25145012 
C      24.53367528      18.81961310      11.68413956 
C      15.45838121      33.25920894      21.01711023 
C      15.09236955      25.53680741      32.15840894 
C      10.71139515      27.19554904      21.41756257 
C      23.05155588      12.40274102      16.60041118 
C      13.14855894      24.67699773      17.28446258 
C      21.43621115      12.21710713      28.62309657 
C      16.77028139      16.16094019      33.46741292 
C      14.03103515      15.33406972      21.18690259 
C      13.07810106      15.05249598      26.31764971 
C      27.14842905      33.32871423      15.93962587 
C      31.61315650      13.37724181      25.59871348 
C      18.48305110      13.34607511      19.04272826 
C      28.35176859      34.62940445      25.77671518 
C      12.15046505      22.39632017      28.62022848 
H      22.27240718      14.12637473      32.94321079 
H      21.13385875      13.76294360      34.28668543 
H      20.54894477      13.79406197      32.58511791 
H      30.65601724      33.31177394      19.03416936 
H      30.31281480      33.63566598      20.76264517 
H      30.74647826      31.98352018      20.23944429 
H      24.47220202      24.45237608      37.31743777 
H      23.01023556      24.81746237      36.36086993 
H      22.96069326      23.55034380      37.63572208 
H      23.46086169      18.31610851      37.83893711 
H      24.38713720      19.78932346      37.39116424 
H      22.72266400      19.57574397      36.79313888 
H      11.12241856      19.30805038      26.10927349 
H      10.98187484      20.23360908      24.58428872 
H      10.08111100      18.69728008      24.78252991 
H      33.45971082      15.55308120      28.59815146 
H      32.89493137      15.26485803      30.26838686 
H      31.73912952      15.16895735      28.89976471 
H      30.50972782      12.67150453      21.86934255 
H      32.03656578      12.61389703      20.92734616 
H      32.08593081      12.76923677      22.70830424 
H      31.32488647      20.72173514      15.71478848 
H      31.94875664      19.35002900      16.68442748 
H      31.63692140      19.13168542      14.92524570 
H      27.34310676      22.55957445      35.57682942 
H      29.04789037      23.10313228      35.42904510 
H      27.74404988      24.04531133      34.65350211 
H      21.95901445      29.49792893      35.76137883 
H      22.09450349      28.23842243      37.03707478 
H      23.55962098      29.05042277      36.40907201 
H      12.77043881      32.40080088      25.27764726 
H      14.36751683      32.29528712      24.46634111 
H      12.87387116      31.87845693      23.57284440 
H      16.98571633      17.29529093      14.97380202 
H      17.92581409      16.45881816      16.23881795 
H      16.20988209      16.00528581      15.94303562 
H      32.63789102      24.16798027      17.74046618 
H      33.81731094      24.98970752      18.81806477 
H      34.24434811      23.43397474      18.03471531 
H      27.18310004      33.11344368      33.07167242 
H      26.03764723      32.50388003      34.30544920 
H      27.80189783      32.48239288      34.63981519 
H      21.96354580      33.81305731      31.80190979 
H      22.48588783      34.26023351      33.46117777 
H      23.68305855      34.20785300      32.12563299 
H      15.90482460      33.40450631      18.00276637 
H      17.65946205      33.76994252      18.06266711 
H      16.83278041      33.56959645      16.48274151 
H      11.24388974      22.93256693      20.36385394 
H      10.54943244      21.31188210      20.65222261 
H       9.60136282      22.78052917      21.06295087 
H      27.37539622      12.81092694      27.54019964 
H      26.26901324      11.61258932      28.26129481 
H      26.74900495      11.47492970      26.53901972 
H      35.86711494      28.91845589      28.67784722 
H      34.42231810      28.73076139      29.72524725 
H      34.91344475      27.39489618      28.63955707 
H      28.25706981      26.88948919      35.57343111 
H      29.26384918      28.17921406      34.84550300 
H      27.50916430      28.15204731      34.54227241 
H      23.29667354      25.40257087       9.97594067 
H      23.87502842      23.74851786       9.59056104 
H      22.25119839      23.98544669      10.31265875 
H      26.21581515      25.87919856      11.26371332 
H      26.85952802      27.47997088      11.73269178 
H      27.92603136      26.29538377      10.89804092 
H      18.22097312      32.85937123      32.58796704 
H      17.39758100      34.12749130      31.62015136 
H      17.16575341      32.39603475      31.21616963 
H      30.41065216      17.93278835      34.42856109 
H      29.72419090      19.48077379      33.81862357 
H      28.76636893      18.45379397      34.91832247 
H      18.65542339      34.07050702      24.25015396 
H      19.25753578      35.59835584      24.93615482 
H      19.42982606      35.28035926      23.18113103 
H      32.15198595      32.50209393      29.82816434 
H      32.96811603      32.64672397      28.24417786 
H      32.12468803      34.06637074      28.94427299 
H      29.62760913      30.86838648      14.79215301 
H      29.05380058      29.40015548      13.94674672 
H      27.86884667      30.55545182      14.62000426 
H      34.20617019      15.76808005      25.47951519 
H      35.58128166      16.83859156      25.06360057 
H      34.33003780      17.39313799      26.23006217 
H      35.14223680      21.79777497      21.13746568 
H      36.22909851      23.01570272      21.86190790 
H      36.66130943      21.27883625      21.95932681 
H      17.27343525      12.30905293      26.19991417 
H      16.93518301      13.48902422      24.90876209 
H      17.86687155      12.00582252      24.53949778 
H      22.56140359      35.24630807      19.65026547 
H      20.95680391      36.01335722      19.89888261 
H      21.70884867      35.02333265      21.19906815 
H      12.70407655      18.24999854      17.67597200 
H      13.30162874      17.21929449      18.99538458 
H      11.54194075      17.55136077      18.84844128 
H      19.02895046      30.32415067      36.19871364 
H      17.90844529      29.05525346      35.60103285 
H      19.66582524      28.76671629      35.56589540 
H      33.99921623      30.54482764      24.11667039 
H      33.97414761      31.84235832      22.86365575 
H      33.32873370      32.15753170      24.50665571 
H      35.87969748      28.12446264      21.30990122 
H      34.87960321      29.31583567      22.18095726 
H      36.59875986      29.06895656      22.65915447 
H      31.90575749      29.07593048      33.16630902 
H      33.31587155      29.78842597      32.32514763 
H      32.24097139      30.83259658      33.30437085 
H      21.32101319      11.77653529      24.01232930 
H      20.76909025      12.86364161      22.69999296 
H      21.85487641      11.48889311      22.31637122 
H      33.37575068      17.08796570      19.29963221 
H      34.29412817      18.26470103      20.29084972 
H      32.98220689      17.30487293      21.02584840 
H      27.62872487      12.72025136      17.21818835 
H      29.31171177      12.39583136      17.74612049 
H      28.03865114      12.74206303      18.95746359 
H      13.37520357      30.38078623      30.26536684 
H      14.22313372      28.79514048      30.32689334 
H      14.65785384      30.08640357      31.47980464 
H      32.81643462      20.03951458      32.02476894 
H      33.10976824      20.10465110      30.26107611 
H      33.92264437      21.27501534      31.33692262 
H      19.26211839      25.00230613      13.17903415 
H      18.37932393      26.47487437      13.69029817 
H      19.32571205      26.48617336      12.15918029 
H      15.75620199      28.90984477      17.00134412 
H      16.06321556      28.87626551      15.24743651 
H      14.81568612      27.80476890      15.95732582 
H      26.97153120      10.60676158      22.73905134 
H      25.69474755      11.68222878      23.41593684 
H      25.70234748      11.29360513      21.67033469 
H      14.43793220      33.91174681      26.46713271 
H      14.98252440      33.03499943      27.93523115 
H      15.23484343      34.80606542      27.79507736 
H      14.90300704      21.70916164      33.51435989 
H      14.07659872      20.34011870      32.71307200 
H      15.83749552      20.27422500      32.98565575 
H      21.91411306      15.97913223      13.51113879 
H      22.77804189      15.04595500      14.76638844 
H      21.09229463      14.61072882      14.31702438 
H      22.42530471      29.78868410      13.22655158 
H      23.41427180      29.93749462      11.73808048 
H      22.73414956      28.34356173      12.21858202 
H      19.04213748      20.94220063      12.60544462 
H      20.50277002      21.77388860      11.98197610 
H      20.67721460      20.37684556      13.07673107 
H      22.77346500      33.32249515      15.17783281 
H      21.05574548      33.82420703      15.00917129 
H      21.72135998      33.42686092      16.62820019 
H      23.03658992      36.05517416      28.21382116 
H      24.21403377      35.26549715      27.10936095 
H      22.51706679      35.48410867      26.59170561 
H      12.13137763      17.23755232      30.80340020 
H      12.38347171      18.98751775      30.52000556 
H      11.36783179      18.03492377      29.39650995 
H      26.27294317      34.93876668      21.07941066 
H      25.88622016      35.40328582      22.77319618 
H      26.83768771      33.92305545      22.44291769 
H      29.56329552      21.19953631      11.83171083 
H      28.67015513      19.72644201      11.33277870 
H      28.30184962      21.30357640      10.56151854 
H      15.48276681      21.25426864      15.32794584 
H      16.63960147      22.34671307      14.48952720 
H      17.24859940      21.01664380      15.51941441 
H      28.30429885      15.89298262      15.24571963 
H      27.84116828      15.40565503      13.57949276 
H      28.25447000      17.11851609      13.94187864 
H      15.28986762      12.79552400      30.32856725 
H      16.71218551      12.23424724      29.39547734 
H      16.82256382      12.41347092      31.17549992 
H      30.85913385      13.72247589      30.69665603 
H      29.90678534      14.78552565      31.78567555 
H      29.62987036      13.01067890      31.78540436 
H      26.71321198      35.26718643      28.52808318 
H      25.92034414      35.95454981      29.97854173 
H      27.70527556      35.88411465      29.88769427 
H      32.94722115      28.69529800      17.24462599 
H      31.62544690      29.61421260      18.01648796 
H      33.33866096      30.07200849      18.32052109 
H      26.65957084      15.71721874      34.07345113 
H      25.17834085      15.24210351      34.96151489 
H      26.35966157      13.98846560      34.45296643 
H      12.74735892      29.56993855      21.44227311 
H      13.03463989      31.18897294      20.73274385 
H      11.98122204      30.01954496      19.88178020 
H      12.36757578      27.56174889      25.74001895 
H      11.12214917      26.57817804      26.55019882 
H      11.90726886      27.93203387      27.42322307 
H      36.20941881      20.34469020      25.90293021 
H      37.07200242      20.35536571      27.47577772 
H      36.39177137      18.83161556      26.83865079 
H      30.16869811      25.33196376      14.62688557 
H      31.85510706      24.77510118      14.86624484 
H      30.74902303      23.87683396      13.77899262 
H      19.02966862      23.49793260      35.62227389 
H      18.58283247      24.80927633      36.76631074 
H      17.31440504      23.91779513      35.87449243 
H      36.71595380      25.79176842      25.78637602 
H      37.37117887      24.44849031      26.78021273 
H      36.30882681      24.09487659      25.38015184 
H      19.88020129      19.97964918      36.84931247 
H      18.79902976      19.02458850      35.79094168 
H      20.56119319      18.72515817      35.75713601 
H      32.62035209      24.61268872      32.45536000 
H      33.37276513      26.23538691      32.58946698 
H      31.59488670      26.03954719      32.77762886 
H      25.49969375      19.32736725      11.59414779 
H      24.69151895      17.79007154      12.02799059 
H      24.01426193      18.82039868      10.71933592 
H      14.54055067      33.19219435      21.61354370 
H      15.44253216      34.18377828      20.42891417 
H      15.52569984      32.39108202      20.35110753 
H      15.71354701      25.91088460      32.97960852 
H      14.04683738      25.82860792      32.31628819 
H      15.16217065      24.44300768      32.10384650 
H      11.18125341      26.69689884      20.56256242 
H       9.71749577      26.76810317      21.59176556 
H      10.60900961      28.26632331      21.20661121 
H      22.58774437      11.69819258      17.30083946 
H      22.32500535      13.18215084      16.34758680 
H      23.36790223      11.87439415      15.69445956 
H      12.89800180      23.62994348      17.07749809 
H      12.37664197      25.33347311      16.86719560 
H      14.12438545      24.90440032      16.84207311 
H      22.45645991      12.00374343      28.27824773 
H      21.11146573      11.45036232      29.33481001 
H      20.75906535      12.25448053      27.76126894 
H      16.63298484      15.33466281      32.76135119 
H      17.68245895      15.99456812      34.05280212 
H      15.90442239      16.23070489      34.13592660 
H      13.40541993      16.23399252      21.14701936 
H      13.80896450      14.67776334      20.33806736 
H      13.83897514      14.80477740      22.12847538 
H      12.81570895      13.99798440      26.46043736 
H      12.91090472      15.61009491      27.24590833 
H      12.46952755      15.49018026      25.51803583 
H      27.84953178      32.49692016      16.06905114 
H      27.24511408      33.74375404      14.93028369 
H      27.37926179      34.10040800      16.68302615 
H      31.87454527      14.07027109      24.79166632 
H      32.23836823      13.58321233      26.47615650 
H      31.77085270      12.34210777      25.27582097 
H      18.44640200      12.79572143      18.09538901 
H      18.09092797      12.71573259      19.84931302 
H      17.87665099      14.25576684      18.97061583 
H      28.54322485      35.02795019      24.77377682 
H      28.19304681      35.46292211      26.47137549 
H      29.20845032      34.03650689      26.11488396 
H      12.06299218      23.48895215      28.56258064 
H      11.15431910      21.94063866      28.66783854 
H      12.73711278      22.12037908      29.50426243 
