699
Properties=species:S:1:pos:R:3 i=101 optimized=T E=-11709.4871906791 pbc="F F F" jobid=279_84-Ag-90_0-000008-PBE
Ag      33.14582223      25.38247917      26.05646695 
Ag      31.87424584      29.29849093      21.63870645 
Ag      34.34419402      28.18109182      25.55907687 
Ag      29.76671026      15.11515167      19.70263583 
Ag      33.83630225      19.62538004      23.76568289 
Ag      27.24674445      23.31202174      13.37485566 
Ag      18.22139617      33.14453817      28.20671192 
Ag      28.44424752      30.53187773      18.15049072 
Ag      24.91204756      21.27673569      23.28102892 
Ag      26.27974516      23.25657335      24.96644649 
Ag      28.15241217      25.05159004      23.70068145 
Ag      23.79730271      21.62094240      29.02680138 
Ag      23.32801107      27.86145172      27.02653219 
Ag      26.86029410      23.08486777      22.02903995 
Au      22.40386271      19.57110876      27.38079335 
Ag      27.21161195      21.14858183      26.75668492 
Ag      22.01957741      21.53748100      22.72058145 
Ag      21.00539764      23.60844786      20.85997931 
Ag      27.62812060      25.27616492      26.60121036 
Ag      19.97227616      24.03336543      26.69103251 
Ag      25.44858900      21.10525232      20.38007379 
Ag      24.23360830      25.74843273      28.83389561 
Ag      23.83816404      27.68313832      24.13070531 
Ag      26.16983307      27.57561939      27.62793931 
Ag      20.92792027      21.89680372      28.41952743 
Ag      22.86345564      23.73372406      27.22052215 
Ag      21.47332430      21.70470527      25.58771016 
Ag      19.54420098      19.86039965      26.83486550 
Ag      25.85005416      19.12977384      25.08730329 
Ag      25.20836947      23.60728173      30.73073389 
Ag      22.95818616      25.40623450      19.60352873 
Ag      20.96859854      27.92509576      23.55816068 
Ag      26.66962279      27.35403805      24.77450999 
Au      22.55914289      21.36461861      19.85152190 
Ag      21.91279011      25.85528774      25.40242663 
Ag      27.11465374      25.45326012      29.49215630 
Ag      20.11741668      19.70546017      23.99198527 
Ag      25.81012040      25.11144950      20.21076329 
Ag      23.49458760      19.25592148      21.67631197 
Ag      22.32894503      23.88586959      30.04891010 
Ag      21.06088015      17.52107571      25.76754932 
Ag      21.50198144      27.64081064      20.68603572 
Ag      24.35512212      27.40365430      21.29498788 
Ag      24.46293465      23.14173962      18.53948789 
Ag      28.60095689      23.17360567      28.47776834 
Ag      18.61370612      21.98370943      25.06444175 
Ag      26.69420681      21.27734597      29.63459504 
Ag      22.39163986      30.02634375      25.14753743 
Au      27.18288451      27.11827782      21.89871468 
Ag      21.81620490      19.74514060      30.28554455 
Ag      18.49215689      26.38111522      27.70422912 
Ag      23.15493770      21.75117885      31.87530536 
Ag      21.53400911      23.42720352      17.94351881 
Ag      17.08155157      24.31189422      26.18248603 
Ag      27.39464511      22.86494902      19.13182824 
Ag      23.90507965      17.20967843      26.29202368 
Ag      23.30043642      17.49649296      29.20109082 
Ag      25.22011886      29.71223168      25.75895748 
Ag      21.63312608      17.31081585      22.91505472 
Ag      28.74544084      18.83579781      25.68284305 
Ag      22.83519451      29.77026469      22.28769559 
Ag      25.30169744      25.33440682      23.11159543 
Ag      20.03719096      25.65234233      19.00300745 
Ag      29.57648137      27.15939592      25.37463172 
Ag      19.37304087      24.22204383      29.53844324 
Au      18.01179846      22.19971609      27.93735898 
Ag      19.93236187      28.32024181      29.34021591 
Ag      23.68402666      25.85694555      31.70028020 
Ag      20.90322111      26.19770231      31.10500318 
Au      26.38164382      19.07774719      22.21010573 
Ag      24.66542507      19.51972537      30.81416547 
Ag      20.43233727      17.73188828      28.66350901 
Ag      28.80908936      24.84723257      20.77428593 
Ag      19.56028879      30.23507987      24.62530396 
Ag      25.74425408      29.53330720      22.87747897 
Ag      24.87726529      27.21555991      18.28188777 
Ag      28.39885386      20.82376194      20.93612376 
Ag      29.00984652      27.36851680      28.24369590 
Ag      30.04811191      20.92117735      27.33684863 
Ag      18.11685528      23.92767056      20.34349882 
Ag      17.77947885      19.72927005      20.64028975 
Ag      25.59225599      27.70388231      30.48246108 
Ag      28.05937652      23.33965433      31.33532882 
Ag      21.88584913      30.12104771      28.05328056 
Ag      21.77838291      24.03881162      32.90531194 
Ag      18.64327433      27.93704734      20.14879203 
Ag      16.32989480      22.02233783      21.66907797 
Au      30.48433546      25.06316303      27.14828064 
Au      23.39646518      23.54267395      24.34330169 
Ag      20.02643932      30.02445385      21.69797891 
Ag      16.68217737      20.07679060      26.31559562 
Ag      26.73112256      17.02702978      26.88975449 
Ag      29.86974367      25.24545866      30.02741871 
Ag      17.59832020      28.45035194      25.88382272 
Ag      16.18691050      26.33709301      24.33673902 
Ag      28.51901821      29.17581997      23.48863001 
Au      27.75434192      26.86236338      19.02049881 
Ag      24.05525539      19.06601133      18.72279726 
Ag      27.36932910      16.84984206      23.99039378 
Ag      26.88961395      18.82698272      19.29363488 
Ag      25.94749177      21.38685256      32.55266598 
Ag      12.65384568      18.80130013      22.02247077 
Ag      23.01378924      21.13504559      16.98091818 
Ag      26.29204793      29.13607818      19.96285722 
Ag      19.91176780      19.58572351      32.39233720 
Ag      26.11903105      17.21606045      29.73439977 
Ag      29.26197767      18.74094293      22.77617020 
Ag      27.59069339      29.67411280      29.27410008 
Ag      15.27553902      22.39916166      27.38783332 
Ag      25.95658868      20.87906023      17.46264085 
Ag      24.54186877      23.79975939      33.49443826 
Ag      23.52266114      25.17385594      16.65715316 
Ag      17.60389502      17.98876598      28.10879082 
Ag      19.07492447      30.43963143      27.47101734 
Ag      23.44465485      29.41915789      19.45613228 
Ag      22.41864879      25.61515567      22.50895209 
Ag      16.17082491      20.20679993      29.24102437 
Ag      27.49511860      19.14815630      31.41458282 
Ag      29.07923011      28.92483591      20.63408160 
Ag      16.50808825      24.46049788      29.04391927 
Ag      31.91976882      22.77866352      26.13185408 
Ag      16.68096186      21.71524131      18.84469711 
Ag      24.88094074      31.47708966      20.81860695 
Ag      21.96286410      31.74452996      20.37565064 
Ag      20.64390923      25.46871897      16.16781125 
Ag      24.29841373      31.82905596      23.89874157 
Ag      20.62647740      29.69155058      18.86951661 
Ag      23.15941825      15.11087864      21.66008419 
Ag      30.30126634      22.61943963      19.70477087 
Ag      25.02531900      22.92203056      15.59883484 
Ag      18.66155251      23.68703216      17.39528714 
Ag      28.80778416      20.65920841      18.10053167 
Ag      17.53346660      22.41831061      30.96130481 
Au      17.14788515      28.69127935      28.72483130 
Au      27.88171969      16.84174456      21.10914384 
Ag      15.62041424      26.74962460      27.14382741 
Ag      18.99235443      15.74373986      27.01921536 
Ag      19.66921109      15.50807715      24.05594802 
Ag      18.04024243      26.60579155      30.61968112 
Ag      20.25086231      15.41340865      21.23247000 
Ag      27.21161589      31.50339241      24.43863588 
Ag      24.81427037      15.15594867      28.24938401 
Ag      23.93553650      23.34761162      21.44680167 
Ag      20.11513742      21.29235497      16.40101997 
Ag      27.84603004      22.72703915      16.16342622 
Ag      31.33478909      20.41172683      21.72013259 
Ag      26.71974963      31.72908033      27.44593590 
Ag      25.61384599      14.95654463      25.20124952 
Ag      28.66621327      16.17923265      28.81115384 
Ag      26.03800074      14.89630061      22.24727618 
Ag      32.57313643      22.62099061      23.31579473 
Au      25.65368774      30.40698803      31.31828135 
Ag      22.89380760      30.85791183      30.79446183 
Au      24.22589117      16.96932840      31.87117976 
Ag      31.27874771      17.91621020      24.72342537 
Ag      17.00544185      26.06200319      18.61398825 
Ag      31.56067056      23.07372040      28.94668220 
Ag      29.34462488      16.05647134      25.90102567 
Au      15.59966422      29.19704640      23.95996060 
Ag      16.06208003      28.93366616      21.09042991 
Ag      17.05625705      31.25298210      25.55303203 
Ag      29.30245581      24.80600875      17.87393418 
Au      30.64668556      18.03426245      27.59303895 
Ag      18.59275085      17.49567497      30.84069622 
Ag      23.84182644      19.55977941      33.51379418 
Ag      18.04024968      30.69267927      19.72255507 
Ag      17.50431203      30.99276528      22.62690476 
Ag      14.14101696      27.10670723      22.49211305 
Ag      32.59629318      19.98268080      26.43887275 
Ag      24.78601141      25.56352966      25.99363406 
Ag      32.71515515      26.89982394      23.32844928 
Au      24.76669824      20.05548756      15.04619353 
Au      20.12482774      31.05218262      30.07836286 
Ag      31.75388627      27.66290895      27.19186376 
Ag      23.71815240      28.58617799      32.58421252 
Ag      29.90406291      15.95068113      22.96696928 
Ag      22.37198735      17.05451441      34.34384461 
Ag      13.94722625      19.69809002      27.36590178 
Ag      24.02027015      27.86973306      15.63188478 
Ag      15.47974138      17.59603982      30.35413947 
Ag      25.58632861      25.66255411      14.70979999 
Au      29.07628825      30.43105435      32.07970081 
Ag      22.65291243      30.12775581      16.84136938 
Au      22.04004188      21.72898867      34.86076825 
Ag      31.18186664      27.96200044      30.16509260 
Ag      19.87387238      15.03106139      29.72924094 
Ag      22.74714379      25.71467895      13.85497887 
Ag      16.31344099      15.16520161      28.09348746 
Ag      24.86545949      32.69847913      29.54833333 
Ag      26.56055700      14.62527012      31.03669460 
Ag      28.44596950      13.62695671      24.10699843 
Ag      16.32501182      17.31129391      19.37947210 
Ag      16.14719694      17.31319526      23.19573264 
Ag      20.78161787      15.48993402      17.88967865 
Ag      11.91382765      24.48866216      23.04133439 
Ag      14.69816768      30.04496503      26.90057120 
Au      24.35957617      21.40323676      26.17769057 
Ag      14.97861677      19.90816534      20.38083224 
Ag      25.36060709      30.84810473      17.96434134 
Ag      27.74141463      19.87215754      15.35265681 
Au      30.05536453      26.94637136      22.52278869 
Ag      30.99921829      24.84582041      24.29081577 
Ag      31.68264071      24.82570923      21.50832854 
Ag      20.50214482      23.81370323      23.80068062 
Ag      25.18457166      14.98827991      16.12830132 
Ag      30.69730191      29.78121433      25.23845698 
Ag      25.72717283      23.43572674      27.86363832 
Ag      26.96767396      27.64915215      16.40102047 
Ag      21.21051139      31.51180609      33.18394343 
Ag      17.66539664      24.06518775      23.28751485 
Ag      22.97560924      19.37886989      24.50261942 
Ag      27.77990868      21.00026581      23.86130070 
Ag      19.55727011      25.87951899      21.95456071 
Ag      24.98373747      30.72639771      14.93884941 
Ag      25.25093991      19.29414159      27.93847774 
Ag      19.04779698      26.10888916      24.85224680 
Ag      20.49854083      28.14262667      26.41802505 
Ag      21.37693137      26.01660373      28.25989104 
Ag      29.09490422      23.00369629      25.54697591 
Ag      19.16682642      21.79855185      22.17518147 
Ag      24.53825493      17.08603592      23.46557587 
Ag      22.76065396      28.09706694      29.94314363 
Ag      20.66841103      19.55244531      21.13631236 
Ag      20.36444642      22.14639316      31.24699079 
Ag      24.74515965      29.88187920      28.67840681 
Ag      18.06332165      28.22652931      22.99526236 
Ag      28.11232948      18.99060468      28.57298047 
Au      18.99101812      20.10105489      29.71777898 
Ag      29.74947991      22.77283647      22.63624765 
Ag      19.59521835      21.62112371      19.22808833 
Ag      18.21454099      17.82425247      25.19158674 
Ag      15.76537030      22.20526834      24.50667022 
Ag      16.63967394      26.14047251      21.43506905 
Ag      26.39717202      24.93366954      17.32617228 
Ag      28.04767292      29.41700199      26.35475991 
Ag      17.21809713      19.92312236      23.46118436 
Ag      18.85067171      17.66651750      22.38485613 
Au      30.67071464      20.73240446      24.46024616 
Ag      22.03445156      27.46684880      17.76042009 
Ag      21.11371775      19.39129427      18.27204406 
Ag      22.15310427      17.27630404      19.97330548 
Ag      21.94970693      15.50616412      27.53768457 
Au      19.00292067      24.40936832      32.37504133 
Ag      26.45748408      25.63458076      32.38049354 
Ag      14.82826594      24.29138973      22.77360243 
Au      29.54608921      20.86913769      30.15366285 
Ag      23.81682886      31.90833343      26.78457686 
Ag      22.55321942      15.19679055      24.71153308 
Au      24.98251499      17.01684040      20.55909415 
Ag      28.42264663      27.65669930      31.13302415 
Au      19.32085208      17.53809707      19.54464513 
Ag      27.69739242      31.19863702      21.61341774 
Ag      15.25667296      24.06193949      19.92311959 
Ag      21.38289548      17.11830634      31.39245820 
Ag      21.27872363      32.08714188      23.24305984 
Ag      14.16365968      24.44761646      25.54399134 
Ag      22.20947276      23.08604942      15.01364297 
Ag      30.57331705      26.78530395      19.55363320 
Ag      18.28293952      19.50843073      17.74028295 
Ag      22.83332923      18.27749553      16.28753433 
Ag      15.53258177      17.47416625      26.07697913 
Ag      30.24855244      29.93905724      28.11168504 
Ag      29.82541717      18.41708048      19.77197977 
Ag      13.69017275      21.65215533      22.55425005 
Ag      30.33723267      17.74294875      30.72838938 
Ag      26.72533825      15.97953754      18.60735202 
Ag      20.89700703      32.32530034      26.36311352 
Au      19.18991057      27.88166909      17.29631270 
Ag      25.80331253      17.97476411      16.70723958 
Ag      14.52952177      19.55020362      24.37652112 
Ag      19.10107255      33.18200106      20.95848247 
Au      23.92299695      22.35778813      12.62823492 
Ag      34.55712873      22.73008736      27.41954621 
Ag      28.91734150      32.54064401      29.17433483 
Ag      19.36098208      30.96851593      16.57901446 
Ag      23.74552513      15.25197916      18.77729631 
Ag      14.04602012      26.98414377      19.50405719 
Ag      21.37303530      26.73475979      34.09898476 
Ag      20.78211723      28.87888113      32.01368025 
S      20.47516465      15.90436525      33.41077805 
S      28.46105165      32.46533937      19.62005466 
S      24.06220833      22.67384647      35.67381934 
S      24.16427691      18.14665994      35.52823213 
S      12.50212412      18.04849912      24.29780083 
S      32.28387786      17.37005550      29.29522558 
S      31.45533845      14.80416631      21.40853289 
S      29.47550828      18.66885807      16.75277578 
S      28.24275581      21.87067786      33.37496975 
S      23.48484327      27.70424772      34.89538940 
S      13.49592036      30.17294149      24.79457778 
S      16.22049347      18.25474859      17.12900897 
S      32.73518065      23.18111555      19.99247506 
S      27.07852894      30.70061620      33.30238676 
S      23.19761975      32.70918180      32.59528255 
S      17.22841547      31.56792178      17.55523199 
S      11.29000071      22.16905558      22.83845694 
S      25.14059864      13.12948242      26.81859106 
S      33.70534877      29.17269425      27.65116305 
S      28.62939256      26.41194198      33.31179946 
S      24.03748008      24.62644818      12.00973404 
S      27.65920903      25.70731003      13.36726802 
S      19.12616879      33.24376284      30.44392680 
S      28.87433393      17.49464594      32.64728250 
S      21.15930740      34.13349938      24.64121183 
S      30.86146992      32.30700070      27.72948589 
S      28.98050366      29.09230270      16.27255203 
S      33.53753767      17.23285885      23.97940880 
S      34.89555797      21.79176523      23.57207942 
S      19.43880432      13.64648569      25.69937551 
S      20.81736135      33.66818977      19.31962071 
S      12.65929486      19.39084828      19.69049366 
S      19.26649981      30.16361217      33.58252921 
S      31.60517901      31.04767212      23.30743071 
S      35.13517279      27.33115518      23.45253645 
S      31.26062321      30.22784107      31.22032351 
S      23.19961094      13.23873618      23.28274205 
S      32.20638958      19.19576596      19.75074273 
S      28.54241832      14.60253600      17.67617058 
S      15.40441536      30.35800295      29.19432369 
S      31.59767116      21.79313908      31.11600615 
S      20.57422535      26.85960940      14.10805583 
S      17.09157309      27.05703597      16.30947277 
S      27.44475450      12.87185979      22.04001533 
S      16.77982346      33.59250189      26.33440725 
S      15.11872454      21.77482798      30.89606084 
S      20.99232070      16.70627126      15.78921416 
S      24.70992996      28.87919927      13.42741075 
S      19.94807810      22.36071794      14.16872825 
S      21.28835285      31.29235043      15.14870989 
S      22.88169331      33.65908920      28.27816519 
S      13.60420589      17.70142180      28.81787455 
S      24.25410041      33.53659713      22.05499876 
S      27.68048596      20.94368045      13.09809471 
S      16.26387033      23.16607315      16.86581016 
S      25.95441734      16.63393089      14.56102484 
S      17.47796293      14.44889304      30.09711472 
S      28.58145003      13.95987456      29.91437220 
S      27.06752738      33.61629293      30.31102935 
S      32.67059889      28.10229454      19.66949663 
S      24.88091758      14.78984861      32.76683983 
S      14.31248273      29.38966866      19.40213055 
S      13.27050846      25.97880254      27.32388078 
S      34.61207324      20.35829932      27.82060918 
S      30.32292871      23.24529822      16.23668441 
S      19.06803609      25.90460904      34.35112319 
S      35.35284593      24.98194451      27.08648684 
S      19.88260774      20.78248879      34.57562507 
S      32.26803127      25.72815654      30.51345971 
S      23.64166801      20.02667820      12.86253926 
S      17.05140575      33.39733898      22.23979123 
S      15.58836342      26.12766536      30.66573415 
S      11.72095550      26.88718701      22.98940193 
S      24.32277782      13.21787067      17.51434399 
S      12.97864913      24.81612428      19.29036740 
S      22.12833569      13.95670474      29.47696851 
S      16.71929482      17.69946195      32.44266575 
S      15.94994154      15.79622349      21.24689578 
S      15.03356920      15.05611581      26.03088197 
S      25.32749673      32.67982221      16.30084563 
S      29.87514996      13.64206721      26.06616940 
S      20.29189659      13.67586103      19.45004846 
S      26.83959252      33.59793590      25.73595179 
S      12.90977764      21.93816976      26.80824031 
C      21.04527149      14.15883968      33.31503412 
C      30.22829155      32.91738796      19.85939151 
C      23.53083347      23.99308201      36.83880832 
C      23.44497160      18.94934933      37.01579012 
C      11.04733898      18.95406192      24.96356587 
C      32.46009111      15.54727614      29.15018295 
C      31.42618156      12.98082244      21.64332001 
C      31.13199491      19.11758578      16.09283997 
C      28.02715093      22.82631431      34.92905903 
C      23.08039413      29.12816643      35.98631395 
C      13.50026031      31.94267304      24.30170301 
C      16.77531950      16.89234174      16.02258964 
C      33.35893346      24.12664886      18.54551893 
C      26.99688073      32.46539677      33.79445563 
C      22.54863905      34.32557260      32.00806227 
C      17.28747517      33.40513787      17.50966463 
C      10.55132758      22.14552041      21.15229793 
C      26.66589722      12.23359668      27.29859434 
C      34.82050158      28.36239838      28.86868943 
C      28.31425080      27.51975765      34.74422405 
C      22.86799566      24.75990872      10.59253005 
C      27.23736393      26.37708846      11.71081911 
C      17.64224161      32.93316275      31.48507929 
C      29.70592713      18.39190788      34.01982630 
C      19.57654790      35.02573433      24.40166209 
C      32.37574686      32.67419730      28.70027388 
C      28.88509486      30.09089156      14.73338249 
C      34.47845829      16.73047681      25.47698079 
C      35.70908681      21.80554458      21.92374415 
C      17.90353579      12.68527778      25.38385991 
C      21.63876163      35.21145742      19.88640098 
C      12.64280471      17.83011746      18.71953352 
C      19.26731352      29.58246894      35.32475189 
C      33.27111966      31.66646339      23.77657364 
C      35.52485183      28.76198587      22.36576400 
C      32.30646259      29.96114301      32.71270877 
C      21.74517972      12.17489408      22.92987648 
C      33.29643722      17.81932948      20.28306526 
C      28.05819951      12.85367910      17.98914595 
C      14.11768092      29.55736569      30.23125801 
C      32.91131073      20.51838881      31.12888075 
C      19.35346736      26.03818776      13.00985131 
C      15.90953261      28.44514719      16.14042780 
C      26.43033018      11.40710741      22.49058555 
C      15.15967385      33.86098501      27.16298625 
C      14.64159855      20.93324835      32.46026169 
C      21.60264166      15.53439177      14.51170843 
C      23.20605290      29.32532989      12.46761376 
C      20.07892408      21.06474591      12.87264816 
C      21.63805783      33.08706176      15.36087544 
C      23.40937593      35.24290415      27.50875868 
C      12.18514337      18.19146490      29.88634199 
C      25.74241633      34.61479204      22.10468071 
C      29.43760136      20.88146233      12.55512878 
C      16.14040553      22.04455702      15.41475252 
C      27.70283188      16.16199057      14.24642526 
C      17.45323134      12.60761331      30.02768111 
C      29.78050271      13.87155842      31.30630233 
C      27.07826707      35.32539849      29.63053434 
C      32.66138468      29.30083664      18.27329369 
C      25.93171897      15.13681368      34.23570962 
C      12.87790570      30.08981939      20.31501111 
C      12.12064804      27.20154677      26.58811924 
C      36.13295338      19.86173037      26.91341526 
C      30.88224088      24.19294952      14.76105116 
C      19.08693182      24.78156874      35.80569745 
C      36.56497860      24.75099585      25.72081226 
C      19.72950548      19.51582693      35.89634227 
C      32.44435756      25.43985869      32.31947089 
C      24.77550591      19.22352035      11.66617119 
C      15.69714339      33.48918174      20.99922208 
C      15.19530943      25.25877599      32.23246718 
C      10.69534977      27.15623094      21.48781235 
C      22.82160531      12.53913250      16.70077300 
C      12.75900535      24.53573165      17.48728307 
C      21.88246020      12.29866179      28.72204741 
C      16.55185694      16.08294381      33.29591296 
C      14.20645015      15.21805249      21.18720082 
C      13.26041902      14.85315126      26.46202512 
C      27.04037710      33.28199756      16.01504096 
C      31.59138388      13.45232508      25.43338275 
C      18.52959466      13.24632322      19.13780450 
C      28.41733338      34.54111527      25.81794683 
C      11.96365186      22.49946089      28.28120464 
H      22.08051915      14.08944976      32.96323825 
H      20.96253249      13.71706500      34.31449686 
H      20.38804666      13.62359758      32.61901575 
H      30.68552425      33.10403267      18.88170465 
H      30.25733782      33.83619738      20.45700555 
H      30.77815355      32.13113800      20.38918991 
H      24.44207988      24.46737893      37.22305997 
H      22.91878971      24.75204008      36.33865794 
H      22.97553188      23.53968011      37.66679960 
H      23.11188625      18.17424544      37.71469206 
H      24.23517302      19.55148618      37.47946203 
H      22.60887482      19.60916436      36.75858546 
H      11.09982646      18.92005214      26.05863390 
H      11.03292312      19.99776618      24.63056065 
H      10.14083118      18.44191430      24.62178458 
H      33.22423646      15.34556511      28.39006657 
H      32.79597598      15.15352939      30.11642862 
H      31.51863107      15.06773170      28.85768714 
H      30.40926973      12.60840166      21.81064794 
H      31.84923039      12.51146411      20.74784316 
H      32.05454735      12.73830219      22.50800683 
H      31.14523128      20.15704491      15.74682691 
H      31.86271009      18.99801943      16.90342173 
H      31.37105010      18.43866041      15.26647505 
H      27.40652144      22.25666373      35.62898947 
H      29.02443775      22.98367999      35.35732779 
H      27.56577589      23.80096758      34.72806576 
H      22.45882677      29.87108134      35.47084737 
H      22.56180312      28.76614704      36.88124973 
H      24.02531152      29.60030284      36.28078403 
H      12.82523229      32.48881321      24.97068133 
H      14.50511920      32.37931901      24.34417841 
H      13.11938988      32.00146941      23.27514787 
H      16.80562500      17.28505974      14.99935810 
H      17.77321554      16.53109727      16.29496529 
H      16.05240071      16.07081089      16.07490078 
H      32.53241378      24.61160748      18.01249920 
H      34.07640507      24.88116745      18.88549318 
H      33.85272818      23.41332668      17.87501515 
H      27.22512482      33.12301401      32.94857447 
H      25.97339620      32.65610151      34.13994025 
H      27.70968668      32.62268758      34.61167143 
H      21.69018625      34.19708383      31.34028357 
H      22.25657655      34.91994174      32.88100804 
H      23.35462264      34.83573180      31.46692150 
H      16.42024478      33.78913550      18.05911271 
H      18.20885354      33.79404204      17.95743104 
H      17.22086997      33.72449372      16.46337248 
H      11.14414924      22.74232314      20.44989688 
H      10.51161984      21.10720407      20.80217276 
H       9.53709245      22.55483386      21.22061920 
H      27.50635276      12.90804441      27.48392810 
H      26.45929999      11.66605742      28.21327350 
H      26.93065437      11.54274705      26.48901211 
H      35.76573204      28.91710723      28.87873217 
H      34.34815756      28.41363583      29.85712467 
H      35.00875385      27.31444445      28.61062314 
H      28.36845671      26.91273937      35.65576547 
H      29.08697600      28.29682462      34.77228146 
H      27.33156376      27.99657051      34.67705266 
H      22.82941742      25.81571617      10.29837132 
H      23.25009581      24.16018033       9.75891100 
H      21.86627698      24.41959953      10.87153090 
H      26.37263071      25.85607246      11.28686962 
H      26.99853332      27.44113614      11.82299083 
H      28.10994198      26.25218460      11.05968951 
H      17.97239494      32.56501031      32.46399233 
H      17.11751236      33.88900291      31.59923996 
H      16.97632624      32.19683551      31.02156287 
H      30.65962729      17.90241587      34.24469180 
H      29.86667144      19.44531271      33.76538848 
H      29.04833234      18.33534688      34.89552088 
H      18.71664712      34.35108930      24.36825167 
H      19.44568610      35.72390905      25.23649637 
H      19.63128679      35.58512330      23.46001113 
H      32.28683303      32.29507033      29.72374245 
H      33.22309075      32.18403814      28.20682848 
H      32.52072533      33.76033441      28.71030311 
H      29.63994892      30.88465311      14.76422370 
H      29.09853545      29.41917745      13.89308467 
H      27.88833325      30.52841636      14.59167799 
H      34.28756553      15.66302315      25.64081123 
H      35.54812730      16.88088674      25.29318964 
H      34.16981170      17.29503335      26.36426155 
H      34.98064161      21.64209166      21.12210364 
H      36.16893097      22.79216571      21.79123546 
H      36.48487923      21.03273334      21.89941102 
H      17.60364276      12.18375549      26.31163258 
H      17.08442536      13.32730088      25.04559811 
H      18.12672793      11.93138962      24.61974601 
H      22.43982425      35.43751228      19.17245851 
H      20.90838761      36.02771786      19.88954298 
H      22.07563876      35.08415383      20.88299505 
H      12.96472777      18.06808733      17.69933528 
H      13.32385380      17.08096706      19.13557313 
H      11.61964777      17.43793544      18.70920196 
H      18.98086630      30.41703105      35.97446588 
H      18.52747495      28.77716474      35.40191068 
H      20.24397070      29.19451686      35.62991338 
H      33.89470477      30.87086890      24.20362099 
H      33.76186879      32.09207000      22.89397480 
H      33.13191567      32.45176899      24.52941260 
H      35.54280605      28.40152502      21.33091887 
H      34.77725124      29.55722784      22.44812793 
H      36.51081242      29.15015842      22.64526240 
H      31.97022090      29.08975912      33.28257598 
H      33.33553451      29.80163174      32.36863481 
H      32.26488155      30.85870488      33.33986156 
H      21.76395356      11.34429409      23.64530019 
H      20.81187037      12.73708057      23.05327997 
H      21.81579605      11.79319445      21.90571625 
H      33.39875569      17.11740658      19.44744230 
H      34.27930388      18.23438965      20.53678852 
H      32.89914030      17.28158849      21.14859411 
H      27.23280221      12.59109857      17.31684330 
H      28.92718574      12.22046112      17.77686358 
H      27.74089657      12.70576547      19.02754186 
H      13.19560234      30.14407977      30.15121238 
H      13.94156554      28.52189010      29.92028741 
H      14.47312361      29.56284547      31.26832837 
H      32.67987513      19.77907223      31.90527134 
H      33.01671832      20.01704572      30.16269630 
H      33.85547778      21.02200377      31.37011704 
H      19.47802674      24.94867450      13.01787933 
H      18.35266503      26.28907057      13.38379700 
H      19.47568124      26.42605594      11.99201154 
H      15.86485651      29.06939174      17.03738735 
H      16.21652477      29.06175192      15.28772273 
H      14.91806741      28.01594372      15.94974169 
H      27.08663880      10.62155852      22.88022216 
H      25.66426783      11.66721706      23.22933118 
H      25.93736537      11.05514942      21.57654163 
H      14.39204748      33.95735904      26.38658412 
H      14.90215406      33.03404657      27.83396742 
H      15.21484679      34.79600132      27.73199663 
H      14.58260179      21.68817974      33.25303177 
H      13.65411171      20.47650512      32.32353833 
H      15.36118495      20.15669413      32.73906202 
H      21.68123024      16.08165382      13.56489458 
H      22.58923291      15.12850812      14.77092825 
H      20.88155505      14.71699482      14.39830991 
H      22.46906176      29.84483171      13.09061563 
H      23.51470229      29.97143984      11.63801706 
H      22.76025282      28.40249393      12.07734763 
H      19.06574829      20.71657469      12.63987203 
H      20.53243251      21.50288234      11.97598399 
H      20.69195354      20.22140348      13.20430962 
H      22.66495577      33.28462462      15.03104784 
H      20.93268051      33.64510543      14.73468024 
H      21.52690290      33.39498734      16.40665683 
H      23.30698406      36.04088886      28.25295873 
H      24.44618367      35.18128215      27.15956887 
H      22.75022169      35.43902572      26.65310373 
H      12.01752710      17.40623378      30.63240606 
H      12.38084486      19.14355582      30.38996317 
H      11.29444032      18.28776487      29.25463110 
H      26.12323757      34.76116226      21.08832298 
H      25.43761472      35.57714842      22.53305105 
H      26.51957634      34.16823106      22.73653283 
H      30.10112964      21.29641452      13.32087572 
H      29.70371287      19.83354604      12.37299231 
H      29.54581660      21.44911519      11.62399290 
H      15.26967914      21.39144787      15.53818851 
H      16.01979188      22.66873414      14.52169011 
H      17.04771991      21.43753841      15.31375706 
H      28.21325790      15.86789270      15.17015498 
H      27.71055314      15.32797480      13.53558245 
H      28.21221994      17.02744958      13.80567354 
H      16.41302983      12.26583744      30.07751691 
H      17.91937050      12.23962135      29.10814724 
H      18.00314179      12.22322259      30.89473931 
H      30.77541319      13.69112276      30.88331002 
H      29.79090544      14.79681587      31.89343167 
H      29.50435399      13.02719320      31.94797487 
H      26.85159025      35.32316170      28.55874287 
H      26.31801537      35.90982361      30.16234256 
H      28.06306065      35.77452318      29.80167661 
H      33.02079597      28.77571086      17.38038740 
H      31.65505896      29.68704987      18.07622612 
H      33.34162716      30.12679049      18.50822171 
H      26.72487370      15.85407945      33.99596474 
H      25.29839136      15.54350541      35.03307177 
H      26.37483275      14.18647232      34.55572004 
H      12.79326684      29.67401030      21.32564456 
H      13.02696749      31.17439893      20.37912874 
H      11.96137230      29.88480875      19.75058264 
H      12.49604045      27.61137386      25.64626396 
H      11.16199870      26.70561504      26.39731111 
H      11.97463077      28.01846590      27.30549610 
H      36.11698515      20.21033059      25.87442025 
H      36.99921577      20.28592493      27.43359588 
H      36.19949471      18.76799541      26.93502232 
H      30.16997055      24.97955746      14.49235065 
H      31.85861061      24.63510056      14.99109534 
H      30.98883623      23.50139311      13.91695900 
H      19.80284313      23.96170575      35.67674019 
H      19.34695571      25.37009620      36.69298672 
H      18.08010470      24.36417973      35.92437787 
H      36.74600996      25.72249506      25.24651056 
H      37.49458826      24.36938201      26.15797320 
H      36.19188147      24.04316460      24.97191928 
H      19.81474670      19.99960787      36.87554603 
H      18.73385031      19.06715967      35.79351365 
H      20.48985308      18.73119855      35.79318316 
H      32.50288633      24.35635372      32.48257130 
H      33.36894444      25.91801124      32.66266127 
H      31.58390588      25.84040588      32.86810153 
H      25.76951105      19.68321946      11.69565430 
H      24.84834901      18.16735642      11.95392683 
H      24.33581274      19.31584083      10.66667533 
H      14.74662065      33.45095022      21.54458728 
H      15.76879653      34.44473509      20.46768676 
H      15.73819888      32.66087979      20.28215618 
H      14.97296746      26.01229890      32.99677327 
H      14.32067857      24.62006393      32.06412205 
H      16.03839143      24.63793396      32.56179530 
H      11.11035234      26.63886711      20.61517188 
H       9.68347466      26.78756075      21.69077003 
H      10.65398123      28.23413273      21.29405940 
H      22.25461888      11.98394845      17.45663050 
H      22.18254465      13.32882428      16.29333957 
H      23.13849331      11.86508066      15.89705588 
H      12.26319683      23.56520868      17.36495536 
H      12.12619281      25.32635579      17.07033217 
H      13.72699136      24.50889552      16.97405539 
H      22.81479771      12.01883894      28.21456598 
H      21.66118603      11.58352753      29.52262835 
H      21.06441376      12.31633122      27.99282503 
H      16.56772702      15.25896079      32.57411732 
H      17.39716443      15.97590774      33.98577563 
H      15.60774365      16.08299529      33.85213243 
H      13.49854386      16.05252075      21.27177266 
H      14.03674682      14.67883320      20.24847636 
H      14.05409121      14.53570474      22.03196947 
H      13.07315732      13.79022129      26.65177609 
H      13.00169478      15.44728029      27.34520317 
H      12.66365133      15.19474121      25.60811720 
H      27.76176931      32.46015533      15.96349556 
H      27.05676155      33.84880793      15.07734709 
H      27.31003199      33.93456363      16.85314561 
H      31.82333482      14.18177615      24.64857237 
H      32.27255244      13.60039164      26.27982505 
H      31.71526977      12.43541032      25.04449647 
H      18.43252481      12.84741292      18.12213883 
H      18.24207987      12.47377509      19.86081283 
H      17.87272552      14.11407401      19.26465069 
H      28.50532653      35.13693927      24.90183576 
H      28.38629515      35.21299493      26.68386557 
H      29.28155314      33.87642351      25.91346982 
H      11.89212369      23.59419005      28.24040359 
H      10.96261387      22.05539315      28.23717628 
H      12.47136573      22.20317104      29.20597384 
