699
Properties=species:S:1:pos:R:3 i=134 optimized=T E=-11603.8019357106 pbc="F F F" jobid=279_84-Ag-79_9-000007-PBE
Ag      33.16556894      25.44552361      26.03654103 
Ag      31.97170811      29.34041237      21.65321001 
Ag      34.33134879      28.28302885      25.65594305 
Au      29.92870955      15.18822751      19.53936795 
Ag      33.77352017      19.61556484      23.67310387 
Ag      27.19441512      23.16579723      13.21282831 
Ag      18.34600240      33.10890589      28.26113446 
Ag      28.65876005      29.73272205      17.73798041 
Ag      24.97778669      21.27093871      23.23600897 
Ag      26.31669796      23.27380653      24.92304101 
Ag      28.19963258      25.08798742      23.65512865 
Ag      23.82398675      21.64996765      29.00880344 
Au      23.36235529      27.83728264      27.01829989 
Ag      26.92118818      23.10641629      21.98609123 
Au      22.39054184      19.58780154      27.36513380 
Ag      27.25937990      21.17932930      26.70415161 
Ag      22.07715557      21.52533278      22.71313521 
Ag      21.05933791      23.59655240      20.86036698 
Ag      27.67016217      25.29345671      26.56534442 
Ag      19.98647194      24.01882608      26.69076538 
Ag      25.51032301      21.08822897      20.35659578 
Ag      24.30254626      25.71974342      28.81499568 
Au      23.87430951      27.67750188      24.09157569 
Ag      26.21109977      27.56930696      27.63334275 
Ag      20.94494703      21.88844402      28.44079521 
Ag      22.90117422      23.71096600      27.19783812 
Ag      21.49910726      21.70059575      25.58724956 
Ag      19.55242019      19.85195348      26.84645068 
Ag      25.86690075      19.15519776      25.04060368 
Ag      25.27628067      23.57333446      30.72570785 
Ag      23.03838057      25.41907260      19.57413961 
Ag      20.99004336      27.90336409      23.54165207 
Ag      26.71862597      27.36549606      24.75415214 
Au      22.63361323      21.38510008      19.85185088 
Ag      21.95798425      25.83037878      25.36680927 
Ag      27.16484649      25.46752971      29.47099182 
Ag      20.15777188      19.69498408      23.97633238 
Ag      25.89816277      25.17122807      20.18369383 
Ag      23.55469376      19.25665407      21.64859323 
Ag      22.36143214      23.89855643      30.06032959 
Ag      21.06777182      17.51375471      25.76348188 
Ag      21.52224523      27.65540014      20.62072740 
Ag      24.38604942      27.41284875      21.26151769 
Au      24.54698364      23.15460608      18.55132915 
Ag      28.64025353      23.19021695      28.44297514 
Au      18.64222427      21.97454840      25.06482582 
Au      26.74918610      21.31563006      29.59276718 
Au      22.41619675      30.03278501      25.15557766 
Ag      27.26047079      27.17519587      21.85151702 
Ag      21.82037635      19.73196677      30.28008252 
Ag      18.50101795      26.35396510      27.72370856 
Ag      23.19379862      21.74218865      31.87008887 
Ag      21.62950276      23.42155305      17.95471361 
Ag      17.09180854      24.31109285      26.14117030 
Au      27.46642561      22.86972689      19.07632637 
Ag      23.90517831      17.23360369      26.30079659 
Au      23.31829726      17.49896968      29.23363386 
Ag      25.23734930      29.70257217      25.78193136 
Ag      21.66482774      17.31334207      22.88761587 
Ag      28.80752785      18.86274675      25.61353566 
Ag      22.83943594      29.75420346      22.26833142 
Ag      25.35556528      25.36263545      23.07378807 
Ag      20.08833151      25.65161708      19.00134305 
Ag      29.62253885      27.16723289      25.36743544 
Au      19.40066228      24.22094130      29.55601824 
Ag      18.03495303      22.20626051      27.92675240 
Ag      20.00975780      28.32597678      29.31904112 
Ag      23.76832846      25.83350580      31.66897859 
Au      21.00638462      26.30624165      31.14889011 
Au      26.43803163      19.01746346      22.14286969 
Ag      24.71671220      19.56573730      30.79005406 
Ag      20.42483637      17.68495284      28.66225825 
Au      28.82560306      24.92959925      20.71404507 
Ag      19.57878823      30.20643235      24.63315276 
Ag      25.75963017      29.54074388      22.91055973 
Ag      24.94562057      27.25624252      18.22540997 
Ag      28.44801153      20.80272398      20.89040555 
Ag      29.06591881      27.39870078      28.26188966 
Ag      30.12813966      20.93234359      27.27849301 
Ag      18.18388064      23.90691252      20.29981152 
Ag      17.81205874      19.71557467      20.61826697 
Ag      25.66460399      27.71777644      30.52138496 
Ag      28.16754700      23.37321999      31.34930314 
Ag      21.91838143      30.13927667      28.09484424 
Ag      21.83332061      24.07760568      32.89385572 
Ag      18.67987704      27.92316783      20.11329637 
Ag      16.39288909      22.01249969      21.61392008 
Au      30.52895063      25.06974935      27.11423251 
Au      23.43576210      23.52459458      24.32301648 
Ag      19.99426633      29.97763500      21.67786945 
Ag      16.66710012      20.06420608      26.35714112 
Ag      26.75198280      17.07786367      26.82998611 
Au      29.92810998      25.24248857      29.99831660 
Au      17.65799802      28.42663932      25.93250095 
Au      16.25271437      26.29992794      24.25945690 
Ag      28.56105313      29.20495850      23.50360187 
Ag      27.82164399      27.01724606      18.99151535 
Ag      24.12330690      19.06097788      18.68216598 
Ag      27.35929957      16.86768691      23.93846270 
Ag      26.94744341      18.81475379      19.26537782 
Ag      26.03901726      21.37167298      32.59235819 
Au      12.59392508      18.73657054      22.00437542 
Ag      23.14317387      21.12880791      16.93864333 
Ag      26.27759076      29.17681301      20.04626207 
Ag      19.95439657      19.52182846      32.40533252 
Ag      26.15588000      17.27729369      29.72606624 
Ag      29.29333384      18.73988885      22.69856128 
Ag      27.61601530      29.64574836      29.30467236 
Au      15.25766874      22.47041435      27.31124244 
Ag      26.03239252      20.90681178      17.39083954 
Ag      24.59794247      23.78293712      33.52474613 
Au      23.63229079      25.19019121      16.57435623 
Ag      17.58601085      18.01101576      28.14682529 
Ag      19.11733376      30.38058467      27.51152808 
Au      23.48984368      29.49641665      19.38466416 
Ag      22.45951955      25.61787637      22.46206161 
Au      16.24174876      20.25793598      29.25393931 
Au      27.56534866      19.21094638      31.34039059 
Ag      29.16453451      29.06402335      20.62802104 
Ag      16.48528116      24.48349257      28.95824296 
Ag      31.98482204      22.80256064      26.06146912 
Ag      16.76731483      21.72001236      18.76078330 
Ag      24.81002792      31.50989083      20.92122470 
Au      21.93601160      31.69349199      20.37402537 
Au      20.71343193      25.45451214      16.20900763 
Ag      24.24609539      31.88282800      23.91271585 
Ag      20.59907285      29.71072295      18.75101466 
Au      23.18903546      15.10448688      21.63517604 
Ag      30.31758931      22.66606733      19.64057080 
Ag      25.07416283      22.91513751      15.55160355 
Ag      18.77208573      23.65553220      17.32770387 
Ag      28.86153489      20.67458720      18.03610580 
Ag      17.57496473      22.46998018      30.91578127 
Ag      17.15071232      28.70170998      28.80179449 
Ag      27.93840588      16.77246646      21.03164932 
Ag      15.58711175      26.85073946      27.02495774 
Au      18.92706955      15.77877791      27.05581220 
Ag      19.69022500      15.53542341      24.00899922 
Ag      18.12425590      26.66144132      30.70991658 
Ag      20.28843148      15.40917292      21.21266603 
Ag      27.18105946      31.51004589      24.46007875 
Ag      24.84307279      15.24498891      28.27907560 
Ag      24.00124073      23.36600505      21.44534847 
Ag      20.25307599      21.19076337      16.37424477 
Ag      27.89547557      22.80267641      16.06173271 
Ag      31.35788772      20.46548076      21.64960800 
Au      26.72149601      31.65807480      27.47447880 
Ag      25.61471338      14.97867210      25.21546649 
Au      28.67701341      16.27009846      28.78659350 
Ag      26.05036219      14.90767452      22.26138029 
Ag      32.59837064      22.65281748      23.24345682 
Ag      25.69118777      30.45713585      31.39025513 
Ag      22.91056869      30.84620606      30.76260097 
Ag      24.27170836      16.98463805      31.90051663 
Ag      31.33374767      17.94916509      24.71425843 
Ag      17.08783511      26.07057943      18.58304774 
Ag      31.59560136      23.03992678      28.85777196 
Au      29.37028225      16.11718966      25.88265713 
Au      15.61343089      29.17173754      24.01346954 
Ag      16.09632556      28.92017001      21.12514782 
Ag      17.08501286      31.20097976      25.62943272 
Ag      29.36033118      24.87440277      17.87235014 
Ag      30.76516396      18.07257252      27.57064128 
Ag      18.64544423      17.44028627      30.84155520 
Au      23.97689317      19.58583224      33.49674600 
Ag      18.01170389      30.65054403      19.74796731 
Ag      17.49394067      30.97776925      22.67662773 
Ag      14.20738427      27.09556006      22.48051953 
Ag      32.67576957      20.02012771      26.40364766 
Ag      24.83237725      25.54478525      25.96483105 
Ag      32.71240427      26.98479497      23.40344201 
Ag      24.88316145      20.09381457      14.88770936 
Ag      20.07306245      31.01440725      30.14327227 
Ag      31.76837394      27.69219727      27.24994353 
Ag      23.77623456      28.57153262      32.55864935 
Ag      29.89725476      15.95939352      23.05469071 
Ag      22.42614427      17.06272441      34.34499334 
Ag      14.01612366      19.48380164      27.54305851 
Ag      24.12736505      27.82236510      15.49801724 
Ag      15.45338963      17.73811122      30.50193445 
Ag      25.70299296      25.59072523      14.59782861 
Ag      28.71382866      30.44026828      32.14998831 
Ag      22.71162476      30.05232548      16.73910458 
Ag      22.04782705      21.66940539      34.71125369 
Ag      31.15808971      28.14010566      30.28863380 
Au      19.49444003      14.51203711      29.70471233 
Ag      22.77610785      25.63759369      13.72451181 
Au      16.16798860      14.97889409      28.13714348 
Ag      24.98138043      32.82762541      29.52476260 
Ag      26.61043177      14.69830280      31.02745319 
Au      28.56991125      13.39608584      23.81394133 
Ag      16.34850700      17.23732563      19.53593217 
Au      16.24650669      17.31675183      23.18963392 
Ag      20.86908382      15.51541993      17.76012448 
Au      11.91716579      24.60122679      23.09096716 
Ag      14.72436695      30.02926347      26.99055317 
Ag      24.36107471      21.41580839      26.11430375 
Au      15.05383857      19.98763019      20.16360620 
Ag      25.60067915      29.98097978      17.43641600 
Ag      27.85345686      19.96427214      15.27150668 
Au      30.07771167      27.00893565      22.50331204 
Ag      31.03173288      24.87044177      24.26082905 
Ag      31.70226973      24.87216877      21.49975693 
Ag      20.54470940      23.81131061      23.79131901 
Ag      25.18965632      15.02546259      16.10276586 
Ag      30.79792761      29.73342385      25.25368766 
Ag      25.77332017      23.43663052      27.82666017 
Au      27.04308535      27.58136153      16.32923797 
Ag      20.86106162      31.27454918      33.08282318 
Ag      17.69351737      24.01471036      23.23659034 
Ag      22.99436033      19.36928310      24.47912279 
Au      27.82888905      21.00935154      23.82927653 
Ag      19.60306159      25.87504311      21.93192730 
Ag      25.07377559      30.57779991      14.63201433 
Au      25.24981026      19.34930349      27.88257455 
Ag      19.08604693      26.07878369      24.83504014 
Ag      20.53909733      28.11367099      26.43287678 
Au      21.41552642      25.98081370      28.24215292 
Ag      29.14435413      23.02146421      25.50810728 
Ag      19.22545395      21.77634704      22.15520342 
Ag      24.55794922      17.09208561      23.46190460 
Ag      22.87138220      28.08641840      29.91044798 
Ag      20.71726022      19.53066751      21.10274653 
Ag      20.41223716      22.11399909      31.26811764 
Au      24.78952788      29.90731419      28.75360071 
Ag      18.09700510      28.20917214      22.99595805 
Au      28.20323593      19.02975946      28.49028295 
Ag      19.02186626      20.08009096      29.73221464 
Ag      29.78923065      22.79610893      22.59280755 
Ag      19.67654987      21.60314154      19.20738381 
Ag      18.24300735      17.82433648      25.18854655 
Ag      15.76763373      22.18335837      24.47642273 
Ag      16.69062194      26.10605394      21.38708167 
Ag      26.45992278      24.95734358      17.31340416 
Ag      28.10777596      29.40627483      26.35183181 
Ag      17.25129500      19.92788992      23.48968521 
Ag      18.90601921      17.68564008      22.33374305 
Ag      30.73339062      20.75490401      24.41950545 
Ag      22.11065711      27.45972740      17.73868324 
Au      21.23135463      19.35011272      18.28035353 
Ag      22.23153015      17.22680226      19.94508638 
Ag      21.96016424      15.49745992      27.56875398 
Au      19.04827106      24.40439635      32.38494138 
Au      26.47592790      25.59201858      32.38583999 
Ag      14.82605281      24.23634140      22.70118553 
Au      29.64303991      20.90939053      30.12262255 
Ag      23.82013989      31.92837734      26.81816056 
Ag      22.56993123      15.22474052      24.72557449 
Ag      25.03824455      17.02370588      20.54730920 
Ag      28.45030633      27.64292851      31.16135961 
Ag      19.38250327      17.49870209      19.50933382 
Ag      27.65631394      31.23695485      21.67991061 
Ag      15.32882666      24.05153432      19.84867815 
Ag      21.42139237      17.06054286      31.34132722 
Au      21.22631365      32.05176465      23.20609546 
Ag      14.17692151      24.54502730      25.45016633 
Au      22.26175720      23.08522106      15.03830440 
Ag      30.63199442      26.83827521      19.59935350 
Ag      18.40732652      19.46565549      17.72824766 
Ag      22.89541325      18.38378263      16.14806496 
Ag      15.57886590      17.38858308      26.06770094 
Ag      30.27782090      29.99808733      28.12640470 
Ag      29.88372850      18.41798719      19.70897605 
Ag      13.79715250      21.47836832      22.51472869 
Ag      30.42350536      17.72384230      30.71178440 
Ag      26.68605848      16.04685170      18.50881371 
Ag      20.91316146      32.31018720      26.41197063 
Ag      19.21875026      27.83801227      17.16756782 
Ag      25.87332106      18.08721898      16.64397407 
Ag      14.57536612      19.47029252      24.43293083 
Ag      19.05964257      33.12035498      21.04913991 
Ag      23.86737236      22.15531456      12.74012696 
Ag      34.61636694      22.70392916      27.35750261 
Ag      28.82908426      32.55780916      29.34045715 
Au      19.43439276      31.26450663      16.50892937 
Ag      23.79763058      15.09607405      18.87421936 
Ag      14.11279256      27.05974064      19.50410213 
Ag      20.97792629      26.68299290      34.17660605 
Au      19.71311616      28.56389853      32.14515557 
S      20.57090201      15.88903931      33.38153010 
S      28.91174530      31.49720094      19.45343863 
S      24.00905357      22.73365909      35.69122957 
S      24.21190520      18.20411619      35.50155636 
S      12.45431273      18.07541656      24.25223220 
S      32.39407691      17.39806849      29.32071381 
S      31.48393774      15.19629279      21.30638760 
S      29.59717010      18.76446113      16.63922592 
S      28.28753003      21.97937330      33.43782922 
S      23.11487215      27.69816412      34.77567407 
S      13.52717151      30.13838862      24.87774118 
S      16.42346116      18.05507417      17.23644717 
S      32.73678581      23.21294070      19.97547790 
S      26.76956933      30.61441123      33.59587170 
S      22.98074134      32.34987129      32.77067704 
S      17.31663439      31.48827930      17.51314101 
S      11.48945064      22.28895937      22.99769801 
S      25.04860120      13.20841626      26.88852158 
S      33.71582780      29.17970208      27.80036777 
S      28.54288422      26.44586257      33.40078692 
S      23.88679401      24.41806876      11.87333307 
S      27.59400566      25.54750339      13.01286487 
S      19.17420101      33.29158974      30.52133237 
S      28.87390740      17.58669422      32.59779008 
S      21.20821959      34.05669159      24.60615384 
S      30.79480594      32.40215211      27.90803158 
S      29.19003349      28.55821760      15.62371807 
S      33.55240924      17.20321714      23.89292485 
S      34.89450430      21.75879552      23.51035227 
S      19.38632648      13.72244386      25.68716700 
S      20.80844379      33.64628219      19.43447595 
S      12.71716574      19.37240262      19.73578273 
S      18.74381788      30.23773157      33.60997585 
S      31.63855538      31.06683604      23.33809876 
S      35.12856740      27.46808290      23.53709291 
S      31.01172342      30.35684340      31.39492169 
S      23.20738019      13.26008411      23.27339631 
S      32.24628376      19.29367122      19.65784061 
S      28.63732743      14.79079091      17.60722992 
S      15.45640795      30.46751475      29.24859549 
S      31.68516025      21.83853508      31.05700577 
S      20.64332302      26.87388786      14.20995998 
S      17.02913403      27.01189809      16.28919247 
S      27.49474575      12.92025362      21.77255229 
S      16.94937126      33.55641670      26.34988728 
S      15.17663021      21.79425738      30.93016286 
S      21.13010829      16.71555707      15.67148920 
S      24.54614911      28.76071014      13.17146739 
S      20.01036692      22.39000259      14.20140581 
S      21.37780610      31.42250952      15.18420902 
S      22.95233829      33.71048097      28.32910323 
S      13.52765332      17.55327248      29.02948479 
S      24.52671761      33.65406787      22.14151381 
S      27.48203516      20.77456630      12.95176373 
S      16.39550174      23.13145652      16.75459612 
S      25.91763166      16.69381850      14.54639779 
S      17.17859724      14.65384505      30.25518976 
S      28.61300551      14.06769795      29.81436222 
S      27.05540009      33.47827576      30.72813031 
S      32.72643805      28.16102354      19.65713400 
S      25.00239616      14.80928846      32.82195809 
S      14.34908971      29.47960871      19.45864179 
S      13.30965090      25.92967085      27.34993408 
S      34.73916086      20.33070996      27.74224735 
S      30.32612537      23.46766308      16.07401916 
S      18.77375891      25.63900103      34.48137093 
S      35.36966644      24.97020442      27.03118793 
S      19.81931986      20.70441673      34.57366537 
S      32.19841168      25.89931173      30.67465284 
S      23.49030118      19.75321161      12.87950768 
S      16.97992772      33.37376256      22.28492607 
S      15.68473152      26.28452351      30.48797795 
S      11.79057942      26.95622133      23.03374601 
S      24.42872159      13.18661547      17.44651425 
S      13.08193603      24.88400682      19.20874154 
S      21.72880944      13.79844529      29.39107279 
S      16.85833672      17.88215828      32.49404003 
S      15.88971933      15.70717037      21.39244048 
S      14.96902913      14.97348220      26.11115512 
S      25.65358537      32.22030813      16.28515932 
S      29.70876586      13.64831539      25.85961724 
S      20.17882451      13.79156825      19.32492746 
S      26.85038022      33.56240866      25.87826355 
S      12.95063354      21.69143670      26.98817891 
C      21.14421985      14.14406763      33.28493314 
C      30.57175995      32.29039493      19.48891790 
C      23.38325589      24.06730253      36.79360675 
C      23.48020275      19.08806597      36.93490038 
C      11.02523690      18.99644170      24.94356515 
C      32.58635297      15.58135190      29.11962394 
C      31.82066432      13.40609276      21.54265573 
C      31.24430051      19.24647011      15.98107986 
C      28.06563284      22.96129412      34.97273401 
C      22.77559786      29.14479280      35.85636228 
C      13.51817586      31.91131456      24.39438202 
C      16.95412473      16.65121168      16.17145722 
C      33.38552680      24.15682005      18.53752260 
C      26.62768482      32.35012693      34.17394364 
C      22.54320027      34.05610943      32.24575009 
C      17.10290982      33.31277077      17.54318336 
C      10.60703562      22.16749199      21.38864287 
C      26.53912766      12.23987499      27.33976770 
C      34.83821303      28.30046140      28.96363643 
C      28.05385285      27.46449307      34.84645275 
C      22.63730761      24.41918793      10.52060269 
C      27.02348550      26.09785847      11.35745908 
C      17.62022724      33.11855140      31.49299963 
C      29.65353216      18.50610188      33.98219145 
C      19.67830972      35.01804696      24.30798923 
C      32.28826462      32.73427372      28.92192095 
C      28.83407934      29.59330938      14.15269114 
C      34.54543550      16.76772803      25.37913601 
C      35.69853303      21.76909536      21.85738891 
C      17.83096126      12.81759951      25.32680679 
C      21.66372591      35.10363319      20.15552248 
C      12.70765913      17.83263872      18.73853329 
C      18.84501455      29.57733847      35.32178872 
C      33.25995062      31.79261397      23.81060538 
C      35.52053200      28.90536495      22.46107500 
C      32.01958857      30.15632406      32.92456784 
C      21.74822255      12.22330498      22.86792641 
C      33.48892493      18.02338398      20.10883100 
C      28.22461279      13.00876809      17.79793249 
C      14.17415256      29.75824236      30.35758434 
C      32.99856793      20.56303335      31.06937630 
C      19.31353722      26.12870847      13.19128087 
C      15.80671530      28.37190064      16.15867190 
C      26.45927320      11.43787673      22.09949948 
C      15.33138750      33.89781444      27.15677274 
C      14.79488706      20.96161710      32.52138982 
C      21.73926626      15.53729862      14.40125243 
C      22.97482665      29.24827464      12.35271967 
C      20.09686346      21.17499806      12.82863228 
C      21.92894309      33.14763958      15.50940823 
C      23.48755843      35.27050248      27.51596093 
C      12.09980014      18.16596625      30.01749717 
C      26.14608160      34.50249665      22.27117814 
C      29.12739954      20.58113927      12.14379137 
C      16.30419013      21.93486723      15.36217316 
C      27.66215334      16.26125314      14.16268602 
C      16.77921749      12.91140200      30.70069779 
C      29.84011621      13.97515490      31.17979147 
C      27.15428693      35.30095797      30.47893215 
C      32.67349915      29.34337457      18.25094322 
C      26.07802767      15.16908998      34.27116166 
C      12.92390884      30.14623718      20.41059610 
C      12.06436410      27.12934735      26.73757914 
C      36.24076652      19.87327545      26.78339833 
C      30.76060498      24.53836138      14.64449506 
C      18.92586598      24.42888332      35.85457270 
C      36.55756738      24.76121065      25.64087195 
C      19.67846952      19.42565814      35.88614274 
C      32.27762101      25.61243582      32.48472905 
C      24.54526463      18.91828358      11.63062478 
C      15.63559665      33.43804344      21.03230968 
C      15.20831307      25.55709763      32.10706731 
C      10.75168486      27.22574483      21.54169699 
C      22.90852715      12.52482462      16.65143134 
C      12.92895422      24.66477071      17.38930145 
C      21.55827846      12.20807386      28.49063925 
C      16.63742928      16.34226344      33.46589324 
C      14.10427189      15.28734728      21.35223676 
C      13.19309196      14.85262088      26.55819357 
C      27.38014922      32.77651324      15.98970010 
C      31.48756627      13.39449979      25.48005695 
C      18.41213535      13.45036289      18.94091429 
C      28.42406386      34.49053914      26.04687635 
C      12.10111974      22.29045575      28.49975203 
H      22.21664997      14.08365161      33.06886607 
H      20.93141322      13.66448064      34.24712409 
H      20.58415010      13.64611296      32.48377584 
H      31.01598812      32.24394585      18.48942602 
H      30.43126472      33.33809292      19.77923250 
H      31.22350118      31.79392238      20.21884433 
H      24.25167602      24.56819787      37.23758774 
H      22.79252113      24.80801255      36.24270883 
H      22.77593760      23.61847430      37.58718828 
H      23.41052128      18.37762882      37.76702447 
H      24.14637136      19.91691635      37.19988397 
H      22.48773472      19.48940792      36.70616273 
H      11.06676894      18.88031882      26.03359311 
H      11.07026256      20.06081097      24.68918308 
H      10.10145652      18.55254992      24.55647407 
H      33.36244658      15.40988865      28.36390094 
H      32.91129577      15.14839395      30.07262373 
H      31.65264547      15.10952512      28.79455830 
H      30.90493890      12.85480556      21.78370023 
H      32.27539078      13.00485929      20.63017709 
H      32.53400581      13.31993934      22.37128953 
H      31.24111907      20.28961606      15.64621233 
H      31.97681140      19.12832579      16.79013606 
H      31.49276740      18.58127667      15.14631405 
H      27.33238303      22.47348840      35.62398712 
H      29.03947716      23.00541738      35.47547101 
H      27.73617579      23.97993091      34.73588797 
H      22.11905357      29.87509174      35.36582666 
H      22.31594112      28.79781572      36.78885455 
H      23.73479882      29.62668939      36.08058875 
H      12.86913875      32.45725148      25.08861349 
H      14.52591239      32.34272522      24.40406795 
H      13.10403987      31.97703472      23.38115174 
H      16.96774036      17.00617506      15.13407133 
H      17.95655926      16.29684329      16.43706538 
H      16.22969016      15.83503333      16.26717836 
H      32.58246922      24.71272383      18.03968544 
H      34.15918663      24.85079316      18.88330454 
H      33.81501525      23.43371289      17.83422529 
H      26.92526788      33.05053824      33.38577610 
H      25.58059121      32.53091563      34.44385018 
H      27.27031054      32.47087727      35.05339124 
H      21.67754065      34.06328250      31.57428528 
H      22.32110775      34.64153366      33.14521264 
H      23.41038118      34.48466268      31.72864834 
H      16.14124755      33.51950223      18.02709744 
H      17.91097739      33.80370202      18.09667121 
H      17.07700077      33.68108018      16.51172409 
H      11.16557158      22.66869150      20.59060119 
H      10.50399834      21.10140854      21.15118095 
H       9.61640711      22.62306116      21.49504903 
H      27.42001772      12.87409280      27.47280581 
H      26.33721978      11.70380141      28.27423499 
H      26.73287008      11.51906653      26.53645708 
H      35.77455751      28.86737111      29.01937293 
H      34.35954461      28.27281762      29.94987425 
H      35.04485644      27.27723912      28.63112945 
H      27.94459577      26.79746264      35.70979297 
H      28.84697040      28.19572270      35.04287083 
H      27.11547948      27.99782118      34.66757815 
H      22.55109222      25.44072347      10.13157056 
H      22.98288324      23.75499606       9.71995187 
H      21.65918915      24.08353189      10.87927802 
H      26.11556832      25.56522675      11.05457945 
H      26.80875609      27.17147701      11.41331172 
H      27.83138876      25.91312667      10.64035711 
H      17.88304825      32.87699456      32.52961829 
H      17.08805888      34.07593122      31.45888029 
H      16.98060438      32.32666183      31.08719120 
H      30.52680115      17.93897571      34.32389257 
H      29.94817386      19.51422231      33.67202981 
H      28.91847294      18.58381265      34.79198603 
H      18.77952139      34.39671151      24.35169319 
H      19.61583417      35.78673829      25.08799637 
H      19.74697838      35.49776717      23.32414087 
H      32.18206196      32.30208645      29.92303995 
H      33.14915037      32.27761788      28.41993555 
H      32.42441820      33.81957515      28.98911603 
H      29.64998626      30.31296935      14.01777938 
H      28.78154482      28.92509808      13.28444866 
H      27.87878155      30.12571356      14.24731006 
H      34.37929549      15.70386732      25.58690936 
H      35.60693105      16.93057510      25.16164374 
H      34.25133188      17.35645133      26.25588740 
H      34.95916416      21.64313440      21.05859266 
H      36.19153557      22.74098782      21.73587756 
H      36.44707701      20.97047594      21.81619777 
H      17.40518377      12.44905144      26.26730628 
H      17.09660855      13.45772439      24.82886236 
H      18.08538736      11.97069492      24.67790853 
H      22.60515673      35.24910069      19.61334988 
H      21.01683857      35.97831166      20.02189315 
H      21.88707882      34.95376060      21.21714671 
H      13.02068454      18.10071536      17.72273157 
H      13.40069612      17.08598761      19.13976437 
H      11.68646924      17.43479338      18.72844540 
H      18.60971278      30.39628722      36.01171984 
H      18.10361553      28.77662740      35.42285474 
H      19.83785515      29.17614158      35.54795553 
H      33.93169292      31.03860581      24.23906158 
H      33.72514916      32.24923724      22.92961267 
H      33.06811027      32.56718350      24.56294068 
H      35.57497705      28.54368355      21.42786264 
H      34.75435046      29.68532791      22.52070427 
H      36.49026371      29.31458408      22.76616774 
H      31.70768858      29.27543091      33.49422919 
H      33.07119455      30.05056298      32.63316784 
H      31.90320543      31.05450151      33.54201951 
H      21.82519106      11.30926513      23.46953539 
H      20.81856773      12.74795503      23.12088604 
H      21.75759361      11.97286311      21.80159419 
H      33.62541487      17.35651613      19.24952759 
H      34.43424510      18.53268655      20.33165077 
H      33.18282959      17.42754383      20.97314573 
H      27.41938533      12.77252439      17.09138739 
H      29.11673623      12.41916301      17.55948043 
H      27.89279647      12.78663006      18.81800125 
H      13.22180759      30.27083589      30.18505189 
H      14.06488401      28.68041425      30.19327793 
H      14.50176529      29.93050945      31.38983575 
H      32.76062606      19.81272275      31.83291932 
H      33.11509738      20.07264302      30.09881910 
H      33.93802619      21.06707004      31.32778354 
H      19.42687669      25.03941326      13.13479326 
H      18.35084890      26.37459224      13.65748875 
H      19.36890979      26.56852206      12.18827553 
H      15.82334039      29.03570845      17.02746775 
H      16.03909743      28.95665714      15.26111432 
H      14.80798131      27.92944901      16.06078486 
H      27.10613370      10.59374159      22.36078278 
H      25.73114653      11.62759798      22.89537442 
H      25.92257756      11.21863056      21.16813787 
H      14.57467514      34.00088631      26.37046201 
H      15.04339754      33.09331487      27.84288359 
H      15.41143056      34.84317238      27.70525469 
H      14.59892064      21.74409478      33.26440610 
H      13.89655529      20.34572173      32.39405566 
H      15.62073859      20.32670352      32.85722452 
H      21.85716397      16.09226857      13.46289168 
H      22.70849905      15.10264470      14.67963904 
H      21.00042839      14.73994042      14.26214288 
H      22.28510778      29.73405930      13.05065893 
H      23.21571725      29.93308473      11.53176357 
H      22.50574940      28.34058795      11.95457304 
H      19.08166175      20.79429434      12.66279905 
H      20.44837439      21.68387870      11.92317196 
H      20.77276816      20.34555328      13.05791013 
H      22.96837254      33.23699437      15.17049379 
H      21.28669817      33.82603127      14.93706080 
H      21.86799270      33.38717098      16.57655263 
H      23.42262358      36.08237531      28.24937401 
H      24.51298824      35.18345897      27.13856221 
H      22.80940494      35.46800112      26.67639927 
H      11.90936979      17.46251394      30.83643428 
H      12.29613796      19.16149642      30.42838859 
H      11.21841437      18.21041888      29.36681942 
H      26.40563900      34.92559678      21.29438891 
H      26.05073696      35.30600479      23.01146840 
H      26.93777483      33.81433992      22.60005118 
H      29.91520864      21.06978709      12.72555213 
H      29.34762336      19.51071280      12.05668403 
H      29.07976715      21.02411427      11.14231383 
H      15.54147454      21.17840938      15.57596688 
H      16.03067357      22.49844976      14.46210628 
H      17.27501012      21.44989992      15.20376994 
H      28.23014084      16.02125086      15.06781873 
H      27.66430129      15.40348941      13.48084577 
H      28.11769522      17.12758488      13.66727216 
H      15.69677123      12.84984617      30.86267439 
H      17.07964283      12.22018466      29.90832480 
H      17.30982547      12.67184430      31.62949255 
H      30.83754961      13.85075403      30.74389631 
H      29.81877385      14.87446885      31.80537034 
H      29.59552296      13.09474122      31.78565249 
H      27.05589701      35.56414510      29.42101230 
H      26.34516521      35.77355571      31.04824757 
H      28.11938773      35.65624952      30.85826041 
H      32.96657245      28.80167008      17.34407980 
H      31.66711153      29.75442420      18.10732257 
H      33.38434072      30.15589887      18.43774398 
H      26.83249798      15.92601992      34.02934868 
H      25.44573174      15.53487632      35.08886618 
H      26.57091542      14.23760089      34.57170211 
H      12.87235302      29.72061763      21.41947136 
H      13.05473188      31.23266306      20.48310965 
H      11.99727343      29.93098803      19.86685057 
H      12.37169498      27.60939480      25.80414304 
H      11.12313093      26.59405380      26.56682882 
H      11.91584365      27.89662057      27.50726561 
H      36.17835278      20.21959962      25.74556568 
H      37.11426669      20.31981130      27.27166633 
H      36.33605271      18.78154879      26.80384928 
H      30.09336002      25.40267750      14.56903114 
H      31.79340436      24.87925712      14.78296761 
H      30.68918237      23.94962808      13.72262433 
H      19.74960312      23.72594002      35.68779217 
H      19.08942272      24.98584547      36.78426775 
H      17.98699566      23.86691135      35.92080856 
H      36.72776783      25.73968949      25.17721180 
H      37.49544720      24.37482008      26.05555718 
H      36.17141013      24.06292365      24.88975846 
H      19.76896391      19.90418080      36.86802987 
H      18.68708828      18.96552282      35.79608970 
H      20.44255181      18.64463381      35.77995785 
H      32.36806977      24.53158184      32.64978794 
H      33.16602020      26.12440685      32.87325423 
H      31.37636338      25.98382067      32.98628538 
H      25.52146827      19.40907191      11.55318019 
H      24.68738677      17.87854965      11.94834833 
H      24.02687367      18.94980041      10.66564974 
H      14.68414077      33.48264714      21.57607049 
H      15.74742927      34.34537253      20.42850729 
H      15.63795649      32.55509826      20.38258162 
H      15.15423690      26.36069314      32.85000314 
H      14.22506641      25.08789835      31.98717109 
H      15.93707644      24.80491747      32.43212744 
H      11.16845416      26.72001880      20.66335020 
H       9.74198880      26.85311037      21.74638042 
H      10.71043443      28.30671745      21.36436727 
H      22.37374733      11.92595752      17.39724478 
H      22.24576432      13.32443370      16.30407152 
H      23.20407036      11.89370573      15.80582386 
H      12.49236597      23.67450269      17.21291261 
H      12.26226799      25.43579410      16.98837574 
H      13.90760603      24.71380153      16.89874957 
H      22.55090173      11.96923145      28.08661810 
H      21.23886721      11.43207260      29.19469061 
H      20.84069236      12.29995122      27.66619384 
H      16.49792838      15.48257095      32.80191968 
H      17.53488840      16.18547846      34.07585506 
H      15.75920856      16.46254101      34.11067752 
H      13.47734782      16.18887155      21.39286094 
H      13.89561163      14.72259955      20.43598496 
H      13.88739833      14.66081882      22.22565284 
H      12.96040987      13.80578781      26.78259342 
H      12.95958361      15.49010245      27.41806456 
H      12.61931044      15.18784478      25.68562436 
H      28.03184824      31.95490073      15.67533485 
H      27.37126311      33.55634051      15.21975619 
H      27.75988756      33.18644092      16.93306084 
H      31.84702474      14.11803754      24.73981727 
H      32.03799916      13.52774060      26.41941770 
H      31.63007518      12.37228910      25.11239907 
H      18.33885322      13.03800476      17.92860363 
H      18.04951058      12.71014704      19.66381159 
H      17.79724333      14.35396965      19.02166777 
H      28.47062019      35.20384307      25.21472010 
H      28.42211853      35.03613930      26.99800172 
H      29.29375973      33.82744011      26.01741821 
H      11.98714208      23.37892094      28.41644701 
H      11.11598711      21.81133081      28.54787935 
H      12.68398052      22.05179224      29.39759083 
