699
Properties=species:S:1:pos:R:3 i=80 optimized=T E=-11184.5505389365 pbc="F F F" jobid=279_84-Ag-40_1-000001-PBE
Ag      33.18614341      25.39855102      25.94807870 
Au      32.06271143      29.31101156      21.56407652 
Au      34.60595520      28.04484075      25.41674449 
Ag      29.81709578      15.14169031      19.72673003 
Au      34.10348093      19.47439956      23.72747114 
Ag      27.13676955      23.62346664      13.34379987 
Ag      18.35233773      33.19933459      28.03445975 
Au      28.61929593      30.74418230      18.12036957 
Au      24.86117380      21.17197888      23.24413929 
Ag      26.24968517      23.20812897      24.91778320 
Au      28.18056155      25.05954025      23.65817680 
Ag      23.73300108      21.58542290      29.02486379 
Ag      23.32956912      27.89473665      27.00439446 
Au      26.86108295      23.02502992      21.99705343 
Au      22.33085338      19.55238735      27.36412109 
Au      27.19350643      21.11015218      26.71397730 
Au      21.94649538      21.46555568      22.70519320 
Ag      20.94763101      23.54709899      20.88816913 
Ag      27.60781368      25.26737123      26.60779677 
Au      19.90910073      24.04683858      26.68760542 
Ag      25.41635163      21.05490567      20.34614587 
Au      24.26864697      25.71980061      28.81709606 
Au      23.80918328      27.68062684      24.08312121 
Au      26.17553852      27.62527232      27.59858501 
Au      20.86860862      21.89198465      28.39827704 
Ag      22.82303382      23.68967995      27.20079043 
Ag      21.41395770      21.67495592      25.58853152 
Ag      19.43247119      19.86144185      26.86426235 
Au      25.79000920      19.07473863      25.12268007 
Ag      25.22465219      23.57201808      30.74604337 
Ag      22.95892184      25.32844457      19.58191420 
Au      20.96884257      27.90160576      23.53813223 
Au      26.62669483      27.36026927      24.75566111 
Ag      22.51263210      21.34124040      19.83621361 
Au      21.86659564      25.83075692      25.40172656 
Ag      27.12916930      25.47868871      29.47719510 
Ag      20.06258276      19.68083768      24.02245301 
Ag      25.86933410      25.05278061      20.17188415 
Ag      23.44958417      19.14639892      21.59994862 
Au      22.32081162      23.92180719      30.04426903 
Ag      20.95863999      17.50214080      25.80959999 
Au      21.49127144      27.58743143      20.60564349 
Ag      24.35009380      27.36373707      21.23587140 
Au      24.48646760      23.11692569      18.51335388 
Au      28.58174890      23.18532075      28.45547327 
Ag      18.52505509      21.99572138      25.09410080 
Au      26.63257575      21.22623650      29.57087597 
Ag      22.36628974      30.06858270      25.11374204 
Au      27.22203227      27.07339931      21.84604451 
Au      21.72645317      19.75961164      30.28148439 
Ag      18.46630025      26.39426261      27.72662841 
Au      23.14560385      21.74973721      31.95827625 
Au      21.54584375      23.38656038      17.94393896 
Ag      17.02674586      24.31254373      26.17206269 
Au      27.42124950      22.80621856      19.04185026 
Au      23.83223808      17.16437697      26.37798371 
Ag      23.22149293      17.47930219      29.23758882 
Au      25.19019487      29.75673228      25.74564521 
Ag      21.57747315      17.21817881      22.89107038 
Au      28.75728026      18.70970794      25.68333918 
Ag      22.84520499      29.76189258      22.22686055 
Au      25.30268960      25.30731498      23.06279631 
Au      19.99665323      25.61918633      18.99796293 
Au      29.50434171      27.10851208      25.39429194 
Au      19.35871137      24.26888356      29.58213125 
Au      17.91953937      22.20154237      27.93282810 
Au      20.00675809      28.39078093      29.39206270 
Ag      23.74051985      25.83851115      31.65986197 
Ag      20.90081578      26.35198514      31.21380594 
Ag      26.29566021      18.93072566      22.14386468 
Au      24.58274318      19.47156324      30.88954523 
Ag      20.33671484      17.73928386      28.70551930 
Ag      28.84545317      24.77822961      20.75680277 
Au      19.52220313      30.16146237      24.58328457 
Ag      25.71610678      29.53704563      22.83448315 
Au      24.90243646      27.08698556      18.30180384 
Au      28.32833988      20.71946388      20.87495523 
Ag      29.09022737      27.39247948      28.26935677 
Ag      30.04862726      20.86889667      27.31482890 
Au      18.05828910      23.86245580      20.36814689 
Au      17.63308651      19.64233333      20.66856116 
Au      25.59049851      27.75572005      30.43790057 
Au      28.09556451      23.38751802      31.25533438 
Ag      21.93507562      30.25554545      28.08533725 
Au      21.80110951      24.17193844      32.91290543 
Ag      18.61038258      27.94503214      20.06543232 
Ag      16.17844641      21.93969747      21.63030208 
Au      30.52523987      25.06539385      27.15902406 
Au      23.34811003      23.48720978      24.33034293 
Au      20.01195005      29.96455073      21.67623423 
Ag      16.50100790      20.07624616      26.40233395 
Ag      26.65245400      16.94120101      26.95096996 
Ag      29.96531316      25.23136057      30.02830522 
Ag      17.53985779      28.48900975      25.89896146 
Ag      16.15184841      26.36877554      24.32396896 
Au      28.48339654      29.17749930      23.41750456 
Ag      27.85335982      26.83242465      19.02196685 
Au      24.03101382      19.03515516      18.74157341 
Au      27.33695392      16.76589425      24.03863288 
Au      26.84184053      18.75668737      19.25455464 
Au      25.93848830      21.41619766      32.61728670 
Ag      12.57493202      18.85019710      21.90653427 
Au      23.04875840      21.10090055      16.96618174 
Au      26.30788156      29.08111915      19.94981757 
Ag      19.87738797      19.61514423      32.50873330 
Ag      26.05115788      17.10777790      29.79602735 
Ag      29.20459427      18.61742594      22.73276631 
Au      27.60948354      29.72581713      29.17254918 
Ag      15.13691065      22.41275584      27.44135300 
Au      26.02552451      20.81618182      17.29509563 
Ag      24.54118530      23.80607764      33.56107627 
Au      23.61312206      25.17064756      16.55273274 
Au      17.51474012      18.00202890      28.13503811 
Au      19.13322722      30.43950557      27.48356911 
Au      23.47518251      29.44734210      19.34536537 
Au      22.36428971      25.56875875      22.46879079 
Au      16.07304720      20.13674712      29.32962139 
Au      27.39711610      19.14786924      31.35850859 
Au      29.15090204      28.90894100      20.60435939 
Au      16.47843217      24.41719200      29.03210475 
Au      31.95181687      22.76751776      26.05958590 
Ag      16.60304412      21.68579004      18.76694446 
Ag      24.86563945      31.47968184      20.76358880 
Au      21.94351046      31.68798686      20.28081517 
Au      20.66093445      25.37810736      16.12046675 
Au      24.34945168      31.84454399      23.92370102 
Au      20.53910593      29.64511395      18.74390477 
Au      22.98511794      14.95810486      21.59870972 
Ag      30.32247517      22.47218846      19.62984761 
Au      25.19074017      22.95910409      15.55980866 
Au      18.71007970      23.64455776      17.29217496 
Au      28.85930232      20.52575861      18.00862636 
Ag      17.52956341      22.44522729      30.99881232 
Au      17.19544099      28.76221210      28.75584577 
Au      27.72532106      16.66138358      21.11823297 
Au      15.64861610      26.84424581      27.15005593 
Ag      18.86304091      15.72716983      27.13270660 
Au      19.48682499      15.50213341      24.05215050 
Au      18.04047602      26.74931161      30.71907382 
Ag      20.06139161      15.35039076      21.24243912 
Ag      27.28893065      31.55138610      24.35702759 
Ag      24.66513196      15.04175747      28.36191736 
Au      23.90840266      23.29440945      21.42493749 
Au      20.13157897      21.11761837      16.41077585 
Ag      27.99377875      22.69979039      16.06895781 
Au      31.28623477      20.36545998      21.68065254 
Ag      26.79150725      31.82831212      27.41030199 
Au      25.56389655      14.89320474      25.27167290 
Au      28.65723838      16.21674631      28.83351057 
Au      25.87569418      14.85507659      22.36472802 
Ag      32.56198549      22.47011356      23.25382531 
Au      25.66630016      30.42935347      31.43213562 
Au      22.87317146      30.80790173      30.81108915 
Au      24.14189001      16.92042643      31.92658716 
Ag      31.25892005      17.78898766      24.67880929 
Au      16.99235304      26.09842539      18.61258312 
Au      31.54981597      22.94889129      28.82571112 
Ag      29.33120421      15.93590519      25.96571947 
Ag      15.50642750      29.28062111      23.97285236 
Ag      16.01925407      29.01576042      21.03960360 
Au      17.05366163      31.30309697      25.56243282 
Ag      29.44761451      24.72495074      17.94604973 
Ag      30.72300226      17.99398355      27.60545134 
Au      18.54829406      17.53074257      30.91539685 
Ag      23.94774465      19.67603228      33.68351109 
Au      18.07832354      30.76657211      19.80943289 
Au      17.45171321      31.03045508      22.66242871 
Au      14.17515481      27.12877184      22.41287601 
Au      32.55643997      19.90733124      26.27078740 
Au      24.75290342      25.49170146      25.97153362 
Au      32.94147837      26.53190590      23.15047196 
Au      24.70096182      20.05685804      14.88094027 
Au      20.04100918      31.09294828      30.14293949 
Au      31.75712244      27.66557570      27.12325310 
Au      23.83297718      28.50447180      32.55269889 
Au      29.76190995      15.79521104      23.01612112 
Au      22.63692727      17.08020727      34.62842063 
Au      13.36314966      19.45792464      28.35311399 
Au      24.03294635      27.91733625      15.60209030 
Ag      15.64005556      17.34548988      30.37873637 
Ag      25.73024247      25.82955653      14.72354854 
Ag      28.61094656      30.70385400      31.83177983 
Au      22.57026269      30.14761732      16.76592220 
Ag      22.04786667      21.82279013      34.82960199 
Ag      31.20033922      28.31056395      30.54957483 
Ag      19.92581233      15.09264258      29.86830661 
Ag      22.77173260      25.69342455      13.72261906 
Au      16.37914836      14.82915843      28.42003108 
Au      25.63268119      33.69675733      29.35297769 
Au      26.58800386      14.44503526      30.99489872 
Au      28.51682571      13.29185270      24.12325648 
Au      16.22945748      17.05220747      19.28860886 
Ag      16.03980054      17.36489624      23.11102159 
Au      20.62557824      15.37871669      17.68081889 
Au      11.73133523      24.65246149      22.88210880 
Au      14.53016086      30.25066375      26.92273823 
Ag      24.29445187      21.35601756      26.14114880 
Au      14.94185204      19.81311394      20.08945685 
Ag      25.56657669      30.77518402      17.88329700 
Au      28.79341695      20.47073797      14.35231062 
Ag      30.19601894      26.98430899      22.51344931 
Au      31.01585958      24.79912983      24.19307531 
Ag      31.75153282      24.61913003      21.40964370 
Ag      20.42324840      23.78474420      23.80168799 
Ag      25.27561670      14.90904051      16.26356256 
Au      30.75635464      29.59655438      25.05684241 
Au      25.68368920      23.36622932      27.83439592 
Au      26.88796477      27.97674507      16.62899362 
Ag      20.65844872      31.39671104      33.07085783 
Ag      17.56013438      24.02896912      23.26936642 
Au      22.90165441      19.29744334      24.46450191 
Au      27.71958670      20.87138101      23.82572268 
Ag      19.50152024      25.88037505      21.94133607 
Ag      24.91843190      30.86832982      14.97663289 
Ag      25.17903589      19.23128087      27.98435967 
Ag      18.98624623      26.11326331      24.84108594 
Ag      20.51498931      28.14188126      26.46302075 
Au      21.38186122      26.05159734      28.29632471 
Au      29.07606193      23.01171786      25.53464994 
Ag      19.07111163      21.75349185      22.17508009 
Au      24.47308947      17.03949172      23.43840584 
Ag      22.82079659      28.13140503      29.85934667 
Ag      20.60335102      19.48171056      21.13097667 
Au      20.36417119      22.16030359      31.32020322 
Ag      24.77440827      30.06765138      28.72074932 
Au      17.97385791      28.24516856      22.99790321 
Au      28.11693207      18.91748819      28.52800917 
Au      18.89278194      20.14963613      29.76951843 
Au      29.73106951      22.66293806      22.58916605 
Au      19.51947634      21.58158147      19.25149399 
Ag      18.13304474      17.81048968      25.24996487 
Ag      15.64353410      22.21926824      24.53172610 
Au      16.62691314      26.18797600      21.43836346 
Ag      26.55232603      24.93095839      17.29327142 
Ag      28.04869119      29.47228077      26.28205313 
Au      17.18310235      19.96149420      23.55744031 
Au      18.78007936      17.65713692      22.41959564 
Au      30.60808832      20.62558780      24.43570531 
Au      22.07217078      27.41301263      17.70303997 
Au      21.09197207      19.30742081      18.33587969 
Au      22.11326583      17.12349904      19.89572263 
Ag      21.83124296      15.47523545      27.59507223 
Au      18.99070092      24.45712761      32.39119967 
Ag      26.48127743      25.63542237      32.36191376 
Ag      14.68558931      24.26214719      22.72772604 
Au      29.53730792      20.74933380      30.15198700 
Au      23.83344113      32.00616290      26.75678220 
Au      22.45717157      15.19406006      24.81939075 
Ag      24.93272828      16.82038256      20.40085694 
Au      28.40873299      27.73857206      31.06005320 
Au      19.23294311      17.45334345      19.54213664 
Ag      27.70905009      31.16218929      21.51077341 
Au      15.26299146      24.09999352      19.92103956 
Au      21.31979481      17.18510888      31.47174058 
Ag      21.18047422      32.14241155      23.08653056 
Au      14.23269237      24.51319737      25.47042990 
Au      22.38420482      23.07227774      14.97355358 
Au      30.64253249      26.67171502      19.61553541 
Ag      18.25524515      19.44921592      17.75858448 
Au      22.72882450      18.34864412      16.20771104 
Au      15.42366706      17.45088814      26.00519022 
Ag      30.32052184      29.97799339      27.94620393 
Au      29.65046841      18.22181664      19.84160020 
Au      13.57217669      21.59618281      22.63436777 
Au      30.44843849      17.44581277      30.91668602 
Au      27.04522505      16.07643107      18.39462662 
Au      20.68717810      32.29575450      26.15192247 
Ag      19.21520571      27.79656153      17.06919104 
Au      25.73194639      17.97993444      16.65271526 
Au      14.50136184      19.51285613      24.34220190 
Au      19.00862732      33.48012959      20.84544551 
Ag      24.25746308      22.24395987      12.75903470 
Au      34.55266304      22.48637612      27.49836855 
Ag      29.13214437      32.38820580      29.17049081 
Au      19.29386319      31.29994403      16.56677509 
Au      23.43080918      14.88629621      18.85809023 
Ag      14.03777367      27.15746614      19.43540146 
Au      20.82604861      26.74574340      34.29111986 
Ag      19.51496500      28.70795311      32.17101253 
S      20.79366086      16.00954593      33.63799785 
S      28.46547260      32.59056596      19.60394501 
S      23.99645863      22.90693783      35.82295895 
S      24.41202990      18.23802751      35.65200989 
S      12.40462240      18.17748190      24.21329308 
S      32.27718078      17.28684094      29.43781137 
S      31.41562605      14.78616886      21.53862550 
S      29.92675621      19.40088401      16.11275542 
S      28.20441501      22.05492792      33.33806015 
S      22.91280577      27.81520640      34.68349520 
S      13.37370956      30.21716986      24.86607126 
S      16.33084042      18.00955157      17.11562334 
S      32.75529847      23.03353958      19.77859532 
S      26.79742530      31.00840316      33.50337802 
S      22.81828251      32.40249768      32.71089331 
S      17.19037432      31.40255213      17.62015218 
S      11.24525054      22.36863496      22.61320627 
S      24.99442480      13.07932779      26.75603491 
S      33.84489182      28.95167469      27.44807977 
S      28.58891193      26.65612616      33.27075012 
S      24.04362876      24.53771511      11.94567372 
S      27.62220891      26.04375568      13.16195585 
S      19.16095327      33.35254751      30.32667303 
S      28.77437362      17.53980253      32.58758835 
S      21.29674129      34.10942803      24.66638040 
S      31.10049622      32.31042549      27.67760881 
S      28.98053814      29.18832449      16.35270002 
S      33.53557959      17.18772561      23.84405659 
S      34.91363362      21.68450346      23.54167021 
S      19.34824047      13.69907559      25.70608205 
S      20.84452652      33.70177637      19.38427140 
S      12.61716349      19.41680391      19.56090743 
S      18.55969581      30.39987400      33.69719862 
S      31.76558167      30.92976988      23.28096821 
S      35.29781445      27.14132878      23.34905961 
S      30.99598875      30.62902014      31.30108832 
S      22.90315866      13.25619604      23.35023064 
S      31.93691908      19.05665919      19.71804862 
S      28.64925459      14.39810557      17.70201314 
S      15.41307240      30.42096892      29.10790860 
S      31.50952560      21.89537105      31.02836256 
S      20.55545419      26.79830560      14.15040823 
S      16.97441524      26.92317919      16.33544221 
S      27.24401064      12.83391690      22.17834813 
S      16.79918134      33.65604963      26.21915362 
S      15.18542023      21.63582058      31.11226868 
S      21.09810921      16.62778117      15.70255404 
S      24.58761864      29.02365596      13.46747255 
S      20.23740808      22.14020651      14.18608918 
S      21.23252577      31.49561503      15.23756335 
S      23.58861339      33.95512116      28.20665707 
S      13.46272702      17.27983995      29.26208424 
S      24.31673460      33.50425209      22.12935632 
S      27.72785494      21.39987465      12.47348130 
S      16.44624923      23.03736757      16.65975486 
S      25.98415568      16.58071738      14.66440222 
S      17.63983445      14.12144726      30.28469458 
S      28.44569643      13.92127643      29.64134154 
S      27.64330341      33.74702452      30.57736916 
S      32.72679508      28.00938917      19.68944644 
S      24.91173990      14.70657293      32.62277518 
S      14.25706275      29.58554982      19.38408966 
S      13.38550866      25.87401799      27.34932007 
S      34.39335132      20.15284321      27.85574589 
S      30.36808181      23.60276650      15.97021608 
S      18.66487190      25.75487182      34.45198724 
S      35.21748955      24.72762320      27.23052577 
S      19.88351756      20.71954382      34.71824855 
S      32.19445353      26.08916665      30.69704843 
S      23.91049871      19.79714497      12.61877624 
S      17.14071225      33.44837224      22.28003724 
S      15.65680728      26.11131767      30.62600808 
S      11.81648364      26.99935445      23.04665039 
S      24.35896432      13.09471988      17.56595685 
S      13.11171725      24.91921902      19.11678673 
S      22.18955721      13.95322358      29.54083130 
S      16.79087000      17.49236229      32.59346965 
S      15.83659576      15.74798438      21.23919474 
S      15.14552740      15.06874966      26.41962979 
S      25.33787434      32.75599077      16.40493891 
S      29.85386163      13.49030641      26.06053698 
S      19.94361059      13.77181506      19.29797980 
S      27.12161126      33.63724138      25.65577375 
S      12.80117325      21.57771520      27.47868859 
C      21.23798694      14.23955746      33.47370178 
C      30.21136027      33.03133388      19.97130287 
C      23.32248347      24.26919242      36.85778832 
C      23.70669455      19.06332203      37.13400945 
C      11.04451939      19.18449462      24.92342986 
C      32.56805670      15.49035508      29.19225124 
C      31.39725659      12.95712581      21.71671153 
C      31.62806611      20.07443050      16.00440674 
C      27.99656906      23.13258077      34.80115896 
C      22.52561912      29.33538582      35.62968523 
C      13.34611842      31.97041242      24.31909635 
C      16.98226483      16.68782385      16.01904963 
C      33.31742709      24.06063310      18.36546529 
C      26.48247842      32.77405045      33.87161360 
C      22.47595274      34.07110900      32.03387890 
C      16.80629427      33.19723673      17.59585809 
C      10.66231355      22.30154059      20.87373871 
C      26.47469371      12.06264450      27.10925047 
C      34.84397846      28.15994239      28.76482529 
C      28.08317998      27.86511945      34.55302550 
C      22.87655509      24.44697002      10.52482861 
C      26.96487772      26.64710870      11.55841027 
C      17.59608118      33.20613453      31.28179766 
C      29.53087900      18.48175570      33.96898112 
C      19.80795899      35.16368279      24.47896318 
C      32.62577031      32.51895563      28.67577208 
C      28.84519627      30.13678226      14.78886862 
C      34.44373711      16.52168718      25.29397690 
C      35.72094040      21.76787716      21.89426471 
C      17.82177034      12.73695169      25.36729854 
C      21.76810781      35.17504947      19.96738169 
C      12.54408529      17.87674864      18.56413035 
C      18.71346531      29.80832938      35.43056781 
C      33.45086397      31.39350306      23.83318404 
C      35.66935093      28.55565313      22.24327353 
C      31.81259233      30.61443954      32.95372859 
C      21.38769912      12.29377205      22.99790634 
C      33.13809204      17.76571548      20.20475375 
C      28.02217660      12.74050608      18.18652656 
C      14.16321535      29.63367765      30.19618574 
C      32.88468811      20.69592606      31.16957108 
C      19.30938676      25.97250150      13.08627424 
C      15.74538070      28.27201064      16.17730788 
C      26.15712097      11.43339670      22.64718472 
C      15.21030435      33.95140356      27.09314964 
C      14.96750947      20.67602099      32.65960619 
C      21.91392063      15.44719669      14.56409954 
C      23.02725771      29.40921158      12.58239044 
C      20.54415611      20.74864937      13.03581456 
C      21.71774807      33.24678424      15.50301366 
C      23.94432927      35.36580248      27.08957297 
C      12.24520562      17.35621458      30.63879171 
C      25.82485558      34.53662464      22.27371245 
C      29.10732967      21.74886057      11.30757496 
C      16.52209442      21.83153005      15.28251055 
C      27.78588846      16.33234238      14.42441953 
C      17.84852849      12.32081115      29.97244111 
C      29.75471233      13.58302446      30.88323284 
C      28.25393521      35.46306816      30.31497565 
C      32.62128723      29.16991500      18.26972833 
C      25.91138054      15.00747818      34.13416304 
C      12.85038728      30.26337664      20.35263299 
C      12.17135157      27.08975659      26.71979846 
C      35.94265024      19.53825781      27.08746035 
C      30.63337319      24.90986021      14.71005947 
C      18.81790005      24.55557048      35.83316907 
C      36.57012889      24.58728239      25.99424983 
C      19.86542706      19.41520221      36.01142456 
C      32.28882258      25.72612662      32.49531674 
C      25.19827205      18.93289343      11.64445225 
C      15.67379856      33.59041381      21.18654511 
C      15.27154587      25.28684959      32.21271605 
C      10.76415759      27.51143131      21.63186821 
C      22.95197714      12.33779924      16.66048291 
C      13.10774435      24.65766370      17.29940495 
C      21.91367069      12.29793619      28.78932182 
C      16.87042138      15.86974026      33.44244370 
C      14.06687505      15.26969309      21.13407158 
C      13.38641296      14.69448326      26.76537049 
C      27.00031515      33.42187586      15.99127261 
C      31.58629881      13.31356448      25.47776410 
C      18.17886324      13.42498238      18.93026231 
C      28.78806291      34.40186232      25.75208555 
C      12.09942790      22.45292822      28.93187627 
H      22.20843874      14.11035698      32.98294729 
H      21.25770639      13.79495404      34.47524965 
H      20.45440479      13.76396742      32.87080557 
H      30.69224816      33.37777883      19.05006819 
H      30.19270349      33.84673783      20.70442793 
H      30.76096280      32.18152134      20.39053822 
H      24.16784708      24.84821531      37.24797084 
H      22.67336062      24.93332509      36.27621178 
H      22.76087396      23.83798723      37.69408662 
H      23.54489309      18.31288343      37.91545816 
H      24.44146579      19.80465007      37.46965311 
H      22.76822885      19.57755321      36.90404965 
H      11.20140202      19.24841856      26.00740174 
H      11.01829684      20.19252522      24.49666426 
H      10.10249307      18.66569316      24.71013240 
H      33.39137602      15.39482011      28.47365996 
H      32.86181375      15.03468977      30.14416300 
H      31.67687519      14.99412997      28.79363389 
H      30.37935907      12.57422737      21.84509721 
H      31.84754888      12.52849216      20.81384827 
H      32.00265231      12.68494802      22.58882404 
H      31.61004497      21.16547663      15.90180957 
H      32.14853998      19.78853956      16.92684957 
H      32.11648182      19.61682182      15.13643937 
H      27.63982978      22.51915311      35.63644901 
H      28.97428018      23.56911510      35.03720410 
H      27.27591791      23.93724303      34.60487135 
H      21.83890493      29.98971877      35.07578657 
H      22.08096684      29.04582881      36.58864312 
H      23.47149701      29.86310765      35.80037941 
H      12.68383890      32.54177697      24.97909190 
H      14.35273030      32.40339870      24.32618002 
H      12.94463917      31.98588346      23.29851007 
H      17.15312825      17.13562819      15.03270666 
H      17.92661071      16.27955284      16.39691582 
H      16.23296773      15.89283949      15.93672207 
H      32.59388239      24.85321812      18.13959830 
H      34.28461005      24.50616593      18.62443661 
H      33.42422621      23.41244322      17.48823207 
H      26.87960091      33.42034486      33.08224057 
H      25.39954193      32.92085363      33.96608954 
H      26.97742740      32.99652568      34.82500540 
H      21.59417121      34.07006535      31.38335823 
H      22.30675305      34.74499983      32.88227725 
H      23.35717023      34.39772247      31.46777425 
H      15.83535453      33.33122882      18.08712588 
H      17.57400654      33.77623977      18.12089807 
H      16.73506166      33.52024305      16.55125066 
H      11.35400094      22.82721532      20.20605243 
H      10.59373784      21.24624844      20.58378214 
H       9.67179215      22.76880349      20.83307697 
H      27.30516915      12.65717389      27.49963573 
H      26.18307388      11.31868565      27.86128501 
H      26.78919639      11.55564734      26.18900879 
H      35.82646844      28.64576227      28.77708580 
H      34.32475221      28.33076967      29.71604891 
H      34.95427926      27.08359844      28.59516242 
H      28.07699163      27.33500215      35.51351969 
H      28.80647628      28.68769552      34.59239812 
H      27.08677163      28.27209152      34.35468057 
H      22.72304474      25.46102094      10.13679390 
H      23.32130200      23.82281930       9.74122600 
H      21.91364683      24.02362868      10.82741391 
H      26.11001202      26.04497683      11.23087396 
H      26.64767113      27.68914863      11.68037204 
H      27.77322210      26.58444596      10.82042016 
H      17.83712325      32.95273009      32.32124129 
H      17.09483575      34.18053767      31.24126223 
H      16.94172138      32.43625372      30.85928739 
H      30.35495937      17.89028859      34.38308489 
H      29.88939532      19.46015809      33.63350092 
H      28.75233795      18.62303166      34.72846515 
H      18.89496590      34.57417775      24.35567389 
H      19.71184935      35.80000473      25.36626856 
H      19.95788812      35.78807054      23.58938889 
H      32.46357596      32.19561400      29.70980204 
H      33.42319477      31.91645009      28.22517305 
H      32.90137450      33.57999214      28.65366910 
H      29.67440889      30.85110413      14.73237342 
H      28.92069725      29.40860367      13.97171444 
H      27.88525328      30.66250316      14.71757288 
H      34.16787431      15.46432816      25.38920962 
H      35.52142660      16.60145077      25.11350479 
H      34.17419670      17.05501378      26.21169481 
H      35.00782379      21.56158492      21.08910899 
H      36.10075580      22.79051407      21.77882267 
H      36.55591327      21.05984120      21.86346009 
H      17.56685985      12.16882611      26.27027492 
H      16.98250012      13.39001718      25.10908935 
H      18.02833060      12.04415900      24.54308771 
H      22.67052042      35.25313138      19.34884617 
H      21.13981995      36.06107830      19.82427364 
H      22.05857806      35.07138107      21.01806950 
H      12.80912990      18.13347557      17.53194184 
H      13.24803052      17.12216266      18.93058823 
H      11.51914886      17.49036305      18.60286716 
H      18.88609832      30.66245719      36.09414213 
H      17.76609246      29.32340117      35.69437597 
H      19.52303344      29.07737216      35.53736134 
H      34.01252280      30.51835647      24.18649526 
H      33.97720400      31.87675177      23.00219720 
H      33.32854609      32.10345601      24.66061827 
H      35.84210616      28.14540495      21.24132071 
H      34.83094161      29.26040483      22.19924435 
H      36.57416851      29.05426805      22.60841191 
H      31.44003837      29.79385509      33.57467935 
H      32.89409350      30.50517493      32.81226978 
H      31.60408522      31.56998751      33.44895280 
H      21.24762749      11.58599169      23.82387313 
H      20.51005586      12.94838068      22.92845799 
H      21.53044247      11.75548458      22.05400434 
H      33.27432922      17.09427260      19.34851987 
H      34.08447806      18.26480816      20.44621339 
H      32.79922602      17.18881360      21.06941048 
H      27.20659498      12.45697095      17.51140099 
H      28.85635872      12.03646988      18.08146996 
H      27.66228838      12.73267417      19.22074457 
H      13.24874711      30.23684053      30.17368363 
H      13.95481922      28.60618660      29.88121211 
H      14.57940378      29.62392398      31.21089735 
H      32.69485965      20.07119164      32.05069486 
H      32.97363098      20.06259618      30.28276579 
H      33.81250957      21.26457797      31.30498108 
H      19.50928622      24.89844056      13.00436074 
H      18.31801863      26.12957049      13.52878946 
H      19.35316466      26.43902758      12.09467733 
H      15.84548367      29.02472537      16.96392481 
H      15.90959116      28.74926477      15.20327183 
H      14.73834982      27.83876688      16.20932196 
H      26.78451080      10.55179282      22.81983259 
H      25.57028355      11.67071104      23.54080405 
H      25.47864248      11.25170797      21.80504933 
H      14.40946111      34.01168277      26.34693486 
H      14.98504753      33.15071422      27.80512639 
H      15.28887389      34.90975199      27.61972142 
H      14.67189141      21.38204704      33.44528740 
H      14.17154085      19.93614350      32.51539217 
H      15.88703536      20.16193643      32.95505110 
H      22.14575888      15.99057015      13.64044068 
H      22.84498287      15.05164997      14.99244843 
H      21.21838692      14.62809413      14.34822977 
H      22.29980487      29.90189462      13.23591376 
H      23.27947420      30.06925812      11.74392709 
H      22.60390256      28.47069720      12.20462904 
H      19.57355599      20.29144956      12.80787162 
H      20.99677524      21.13804755      12.11631773 
H      21.20860305      20.00094230      13.48005958 
H      22.74673756      33.37171056      15.14447287 
H      21.03241635      33.87318892      14.92053877 
H      21.66042565      33.51279618      16.56361447 
H      23.96567730      36.27960418      27.69427318 
H      24.90249982      35.22273074      26.57624006 
H      23.12765963      35.41083662      26.35725372 
H      12.30554027      16.40752217      31.18519838 
H      12.46098698      18.18383751      31.32083370 
H      11.23971243      17.47559752      30.21952604 
H      25.81294761      35.24780770      21.43901597 
H      25.80145411      35.06903663      23.23104345 
H      26.73286176      33.92361206      22.22307581 
H      29.88567966      22.35682294      11.77805168 
H      29.53355312      20.79836997      10.96704832 
H      28.68634986      22.28998853      10.45212657 
H      15.54015350      21.34996906      15.20558188 
H      16.75039122      22.37311650      14.35741031 
H      17.29281272      21.07069036      15.45928984 
H      28.26177139      15.92744805      15.32402381 
H      27.90871940      15.62555836      13.59478328 
H      28.23744502      17.29726109      14.16235796 
H      16.86846952      11.83196416      30.00360432 
H      18.32504351      12.14072920      29.00382489 
H      18.48286806      11.91917670      30.77179435 
H      30.66897686      13.33170968      30.33293467 
H      29.93226324      14.45625135      31.52059116 
H      29.44478841      12.72416726      31.48897557 
H      28.31979166      35.70403999      29.24995707 
H      27.57379047      36.16317730      30.81319481 
H      29.24968076      35.53111356      30.76861729 
H      32.80770914      28.58974656      17.35809531 
H      31.63241788      29.63788621      18.20720298 
H      33.39689589      29.93514365      18.38685461 
H      26.68012751      15.76650626      33.95453419 
H      25.22722931      15.35047790      34.92043466 
H      26.37880321      14.06006106      34.42567886 
H      12.81646070      29.84067320      21.36254743 
H      12.98828840      31.34933972      20.42054042 
H      11.91150493      30.05295579      19.82825917 
H      12.49091209      27.53402115      25.77315770 
H      11.21555981      26.57285677      26.57260892 
H      12.05879874      27.87990785      27.47222163 
H      36.01248238      19.84020400      26.03637476 
H      36.78785358      19.94250758      27.65597412 
H      35.94086595      18.44467892      27.16192901 
H      29.94657628      25.75098386      14.84221992 
H      31.66734224      25.26186760      14.80626609 
H      30.48045302      24.48547001      13.71116881 
H      19.65707176      23.86870825      35.67781226 
H      18.94689424      25.11461710      36.76670445 
H      17.88571073      23.97920806      35.87003024 
H      36.80319408      25.60013866      25.64342292 
H      37.44825778      24.15138038      26.48371855 
H      36.26915488      23.96337868      25.14604729 
H      19.96419681      19.88481535      36.99689405 
H      18.90085125      18.89708556      35.95159069 
H      20.67176402      18.68404843      35.86274530 
H      32.39789966      24.64031565      32.60951600 
H      33.16732103      26.23107796      32.91300316 
H      31.38297988      26.05531665      33.01877390 
H      26.12735529      19.51064500      11.60665516 
H      25.38101800      17.95570158      12.10791578 
H      24.79600473      18.79898279      10.63268286 
H      14.78810777      33.54161962      21.83155762 
H      15.70395983      34.55927046      20.67587417 
H      15.64478088      32.77354879      20.45777426 
H      15.13497439      26.06494782      32.97307231 
H      14.34601542      24.71413801      32.08157789 
H      16.08239173      24.61155842      32.51479077 
H      11.14376034      27.11064904      20.68547098 
H       9.74776551      27.14491791      21.81448743 
H      10.75856133      28.60665988      21.60139083 
H      22.39868110      11.70773150      17.36643527 
H      22.27421444      13.09555303      16.25545499 
H      23.35814419      11.72241024      15.84943695 
H      12.88995825      23.60026085      17.10872251 
H      12.31851568      25.28316094      16.86667832 
H      14.07749563      24.90904437      16.85664374 
H      22.83893125      11.98790984      28.28758694 
H      21.66501569      11.59117416      29.58933596 
H      21.10263405      12.33243984      28.05333254 
H      16.81015060      15.04248894      32.72823688 
H      17.81385131      15.81252306      33.99888859 
H      16.02309561      15.82741203      34.13780714 
H      13.40671879      16.14670164      21.14811439 
H      13.90088249      14.69014100      20.21889066 
H      13.84719429      14.64304155      22.00690659 
H      13.30172523      13.61978913      26.96357180 
H      13.02213779      15.27583912      27.61888865 
H      12.81791473      14.95663067      25.86492312 
H      27.77269578      32.64686356      16.03883510 
H      26.97046120      33.86602122      14.99045380 
H      27.23778850      34.19248795      16.73411337 
H      31.80960678      14.01936251      24.67003236 
H      32.23789430      13.51910239      26.33580501 
H      31.74854442      12.28460262      25.13784872 
H      18.11098073      12.93081143      17.95493647 
H      17.80911132      12.75018789      19.71169208 
H      17.57802178      14.34184237      18.93601798 
H      28.90312371      35.07393088      24.89353906 
H      28.86201167      34.98154343      26.67978237 
H      29.58456521      33.65189279      25.74247356 
H      12.03399680      23.51641064      28.66857309 
H      11.09917689      22.05426063      29.13404452 
H      12.74323548      22.32992418      29.81103162 
