699
Properties=species:S:1:pos:R:3 i=70 optimized=T E=-11603.7949287551 pbc="F F F" jobid=279_84-Ag-79_9-000006-PBE
Ag      33.17503356      25.42434191      26.04803729 
Ag      31.92920770      29.32013329      21.72876204 
Ag      34.39020008      28.15799356      25.48486378 
Ag      29.87063040      15.05903487      19.73713706 
Ag      33.82316240      19.63500678      23.73272505 
Ag      27.12033529      23.27920135      13.32104964 
Ag      18.17403679      33.15177312      28.18491784 
Ag      28.51015691      30.48286077      18.05320026 
Ag      24.95390344      21.24085603      23.26911729 
Au      26.30272456      23.24794019      24.95898672 
Au      28.19466067      25.09859971      23.66694307 
Ag      23.79591723      21.62744396      29.02389150 
Ag      23.33236122      27.89822362      27.01923706 
Ag      26.90766835      23.08043512      22.02229113 
Ag      22.42061478      19.55895890      27.37403351 
Ag      27.23845410      21.15175128      26.74090099 
Ag      22.06029936      21.50593710      22.73232407 
Ag      21.05992391      23.57623698      20.86684258 
Ag      27.63760617      25.29061509      26.57159862 
Ag      19.99683857      24.02660454      26.67568901 
Au      25.48921301      21.06279976      20.37522737 
Ag      24.24827867      25.77019043      28.81053450 
Ag      23.86652227      27.72538805      24.12265586 
Ag      26.17984745      27.61207826      27.58415506 
Ag      20.93954961      21.87985081      28.42519249 
Ag      22.85980784      23.72762594      27.20943471 
Au      21.48146915      21.67500730      25.59701009 
Ag      19.54345342      19.82847866      26.85519086 
Ag      25.87069740      19.12898125      25.08898419 
Au      25.22653439      23.61506125      30.72085143 
Au      23.03424200      25.40055640      19.57350202 
Au      20.98914989      27.94635668      23.55493573 
Ag      26.69265602      27.40139968      24.73541428 
Ag      22.61126531      21.33055607      19.83756233 
Ag      21.94400389      25.87882552      25.37901333 
Au      27.13790230      25.47498042      29.45027067 
Ag      20.14408433      19.66762464      24.00195155 
Au      25.89610620      25.09440611      20.20982544 
Au      23.54950171      19.21835261      21.67612770 
Ag      22.33830748      23.89556663      30.05289465 
Ag      21.07677919      17.49396585      25.79276577 
Au      21.53598076      27.65307077      20.61442019 
Au      24.40308506      27.44034822      21.27688727 
Ag      24.51139468      23.11368623      18.52388109 
Ag      28.62781995      23.17698405      28.44041719 
Ag      18.61939988      21.94998253      25.04989503 
Au      26.72732501      21.28254150      29.60518438 
Ag      22.39553253      30.06951325      25.13246903 
Au      27.26246966      27.17818731      21.86673655 
Ag      21.83810320      19.72754731      30.23343876 
Ag      18.50295731      26.39840512      27.65486305 
Ag      23.16912866      21.72813183      31.89793301 
Au      21.60062644      23.42147410      17.94630366 
Au      17.13126965      24.31727952      26.11837205 
Ag      27.44309179      22.85405710      19.12689679 
Ag      23.92609019      17.21585424      26.31134323 
Ag      23.33244260      17.47044479      29.20482579 
Au      25.21321991      29.76759103      25.79198165 
Ag      21.67919711      17.29540268      22.91328506 
Ag      28.78360034      18.86559188      25.68060253 
Au      22.84415915      29.80662128      22.26163010 
Ag      25.32637412      25.35827476      23.09558553 
Ag      20.08944903      25.68993168      18.99410251 
Ag      29.57217866      27.14651363      25.34783363 
Ag      19.42956858      24.22836147      29.54868013 
Au      18.02617982      22.16707070      27.91711671 
Ag      20.00198593      28.32305535      29.24600474 
Ag      23.70802370      25.89785556      31.64398713 
Ag      20.94231923      26.24103114      31.10101683 
Ag      26.43954755      18.99993612      22.18044532 
Ag      24.69973791      19.54989725      30.80576070 
Ag      20.44194883      17.66745129      28.65521848 
Ag      28.84697816      24.87733450      20.74961490 
Ag      19.55394924      30.25373029      24.59429826 
Au      25.76829451      29.57435199      22.86471084 
Ag      24.97440967      27.22452318      18.25327970 
Ag      28.42967205      20.81093508      20.94202294 
Au      29.03693070      27.38837140      28.24207507 
Ag      30.09462212      20.94170659      27.34439652 
Ag      18.16341710      23.90630267      20.34609818 
Au      17.82629321      19.69023689      20.68025689 
Ag      25.60042433      27.73917280      30.45256837 
Ag      28.07365761      23.38466618      31.29857362 
Ag      21.88539008      30.19384826      28.04045250 
Ag      21.78966683      24.08897295      32.88219256 
Ag      18.68329772      27.93132923      20.07372969 
Ag      16.35700435      22.00568132      21.68049010 
Au      30.51954395      25.07941480      27.14426294 
Au      23.41076001      23.53755559      24.34383249 
Ag      20.01210921      30.00885325      21.65719302 
Ag      16.65137043      20.06973293      26.34749030 
Ag      26.77464825      17.07763694      26.87552480 
Ag      29.88524104      25.26609076      30.03628705 
Ag      17.60156912      28.50361636      25.89043613 
Ag      16.25960309      26.37845264      24.27793984 
Ag      28.58737472      29.20209510      23.45174432 
Au      27.82056605      26.94472729      18.99556439 
Ag      24.14317980      19.02261545      18.71394934 
Ag      27.40186291      16.83097741      23.97939383 
Ag      26.96617237      18.77801884      19.28905278 
Ag      26.00513001      21.39928597      32.58638390 
Ag      12.61479222      18.83951521      22.10308012 
Ag      23.09601041      21.10009809      16.95270212 
Au      26.32555587      29.22945778      19.87677180 
Ag      19.98832569      19.53214860      32.37984981 
Ag      26.14183660      17.26184663      29.74898835 
Ag      29.26364047      18.73263497      22.78316284 
Au      27.54890412      29.67999198      29.21838777 
Ag      15.22182126      22.46267666      27.36289409 
Ag      26.02014221      20.86569049      17.41827822 
Ag      24.56823156      23.81120694      33.45432035 
Au      23.59786491      25.18391018      16.61934629 
Ag      17.58971990      17.97262717      28.10487395 
Ag      19.10029782      30.46990562      27.44996585 
Au      23.47830860      29.48740883      19.30282598 
Ag      22.46031278      25.62160109      22.48228816 
Ag      16.17337517      20.22823101      29.25480986 
Ag      27.52878086      19.17584892      31.40152203 
Ag      29.12361074      29.01824423      20.60276673 
Au      16.59584650      24.47481052      28.96047532 
Ag      31.95854137      22.81027058      26.14360757 
Ag      16.73062920      21.62008056      18.87980381 
Au      24.90276167      31.57408899      20.76931047 
Au      21.94475119      31.73180663      20.36180743 
Ag      20.69482399      25.41409378      16.16186690 
Ag      24.29746863      31.88859573      23.88729474 
Ag      20.61631628      29.70033583      18.76124562 
Ag      23.20520512      15.07749101      21.66523324 
Ag      30.30809575      22.59373256      19.63304516 
Ag      25.07294043      22.88994113      15.61676234 
Au      18.76876647      23.66456649      17.41039067 
Au      28.86112099      20.64078903      18.10066613 
Ag      17.57147172      22.41778532      30.87660555 
Ag      17.18773049      28.72417807      28.74667709 
Ag      27.90180762      16.75527595      21.10021235 
Ag      15.62256532      26.82302545      27.10393973 
Ag      18.98322319      15.69187492      27.04589349 
Ag      19.74048300      15.51160665      24.06931139 
Ag      18.13902807      26.67018072      30.64932810 
Ag      20.32188729      15.37652357      21.24486434 
Au      27.19343569      31.52445854      24.37492695 
Ag      24.95326819      15.22116027      28.23460350 
Au      23.96010022      23.32409812      21.45235260 
Ag      20.19951446      21.23877418      16.38533972 
Ag      27.90749572      22.75517172      16.15553493 
Ag      31.35800508      20.43964039      21.72367233 
Ag      26.86227722      31.79631015      27.45106611 
Ag      25.66576125      14.95212133      25.23629179 
Ag      28.68020636      16.22891545      28.81342891 
Ag      26.05945118      14.86972254      22.28805420 
Ag      32.59959895      22.64036132      23.31196349 
Au      25.67563613      30.45230487      31.31410431 
Ag      22.89592714      30.92247293      30.71953906 
Ag      24.24832524      17.02409206      31.94101949 
Ag      31.30523408      17.96346626      24.74229437 
Ag      17.11210257      26.04804547      18.55086305 
Ag      31.53707292      23.04840663      28.97114932 
Ag      29.37145935      16.10845593      25.91451424 
Ag      15.62326651      29.21995358      23.95956700 
Ag      16.10107132      28.95248833      21.07402158 
Ag      17.08093642      31.30831074      25.52823932 
Ag      29.39549947      24.87035120      17.87902465 
Ag      30.70324925      18.09257959      27.61413857 
Ag      18.64127155      17.44941501      30.81562962 
Au      24.00390476      19.61941311      33.54896918 
Au      18.06072432      30.66915343      19.71319081 
Ag      17.52305630      31.02201112      22.62381170 
Ag      14.20287713      27.11743624      22.44555296 
Ag      32.64873801      20.02247031      26.44904484 
Au      24.78866775      25.58734512      25.97489716 
Ag      32.88600174      26.73038249      23.18919580 
Ag      24.82496207      20.05376611      14.94634755 
Ag      20.05871518      31.01125231      30.12086055 
Au      31.75618661      27.68129928      27.21735114 
Ag      23.78390715      28.62845846      32.52744776 
Ag      29.96076451      15.98329580      22.98137980 
Ag      22.43963337      17.05725973      34.38821375 
Ag      13.97221197      19.49495921      27.51679020 
Ag      24.08129890      27.88705259      15.57436658 
Ag      15.62178334      17.63618660      30.55345490 
Au      25.63179937      25.60481501      14.73658067 
Ag      28.74474990      30.54860449      31.94208682 
Ag      22.62816048      30.14441505      16.72891527 
Au      22.02360343      21.83325784      34.83998418 
Ag      31.23040468      27.97776780      30.25178358 
Au      19.36771830      14.31221079      29.59704689 
Ag      22.73976402      25.69102035      13.81548208 
Ag      16.14037647      15.18906556      27.95275321 
Ag      25.06630124      32.77562004      29.55589820 
Ag      26.61617340      14.68422452      31.04228441 
Ag      28.46127910      13.65805379      24.13972158 
Ag      16.38539134      17.26239677      19.44643023 
Au      16.18384940      17.34287575      23.16999612 
Ag      20.87323517      15.43837995      17.87291370 
Ag      12.03991516      24.56575412      23.14552783 
Ag      14.82042369      29.94429656      26.95599222 
Ag      24.36181087      21.39254828      26.16037334 
Ag      15.04736357      19.77495849      20.51647374 
Ag      25.42402604      31.07061225      17.96048160 
Ag      27.81055793      19.98301666      15.19773030 
Ag      30.13623259      26.97857315      22.49588087 
Ag      31.03723722      24.87501988      24.27242384 
Au      31.72376249      24.78893380      21.48738616 
Ag      20.54897469      23.80848980      23.78961375 
Ag      25.24779896      14.94949864      16.13683359 
Ag      30.78544362      29.68091326      25.21040918 
Ag      25.72502504      23.42781163      27.84161689 
Ag      27.04926073      27.60792167      16.32160437 
Ag      20.85709716      31.36228989      33.04642585 
Ag      17.72915614      24.05407762      23.25576656 
Ag      23.01105440      19.35054559      24.51220265 
Au      27.81060352      20.98578838      23.84973345 
Au      19.59370721      25.87227802      21.93252610 
Ag      24.96679367      30.88752650      14.93862462 
Ag      25.24740649      19.31537159      27.94867318 
Ag      19.08434421      26.12079687      24.83095472 
Ag      20.51419928      28.15980889      26.40760135 
Ag      21.40062659      26.01704660      28.23834672 
Ag      29.14532613      23.03414868      25.53278311 
Ag      19.21084377      21.77059496      22.17346821 
Ag      24.58610163      17.06964989      23.47661209 
Ag      22.78083680      28.14679568      29.90849720 
Ag      20.72511451      19.50849311      21.14388621 
Ag      20.38917822      22.12117783      31.23756098 
Ag      24.74305740      29.97424459      28.67089167 
Ag      18.08451313      28.24527798      22.97953409 
Ag      28.15914371      19.02254599      28.56631256 
Ag      19.00070728      20.07546382      29.70050801 
Ag      29.78574308      22.77450636      22.62365387 
Au      19.68354145      21.57357746      19.24410174 
Ag      18.22965008      17.79801073      25.20411494 
Ag      15.76215369      22.24329916      24.51067076 
Ag      16.69478696      26.16376529      21.38165242 
Ag      26.48835733      24.93069017      17.35926725 
Ag      28.08123643      29.45316011      26.29497297 
Ag      17.21533775      19.93217277      23.50357000 
Ag      18.89585948      17.63040653      22.38280522 
Ag      30.71226216      20.76109031      24.48249642 
Ag      22.11905506      27.46851370      17.72896363 
Au      21.23918664      19.32554712      18.25471493 
Ag      22.24111459      17.21843827      19.95838098 
Ag      22.00935093      15.47239704      27.57828978 
Ag      19.01859041      24.39747582      32.37133595 
Ag      26.48960478      25.65134068      32.33781160 
Ag      14.90565133      24.28705931      22.66883626 
Ag      29.57081855      20.93688643      30.19498447 
Ag      23.83036961      31.99224425      26.79384010 
Ag      22.59263691      15.20298388      24.72694144 
Ag      25.05038993      16.98524635      20.58707999 
Ag      28.42415419      27.71490731      31.12405267 
Au      19.39856165      17.47065405      19.55479277 
Ag      27.70754055      31.27272925      21.58021407 
Ag      15.33887534      24.04219847      19.86262414 
Au      21.42358857      17.14199992      31.34258961 
Ag      21.31969573      32.13005632      23.18510997 
Au      14.24222396      24.60650489      25.34626145 
Ag      22.24222240      23.06141905      15.01939796 
Au      30.61244646      26.84446944      19.56698452 
Ag      18.38823830      19.43532383      17.76969118 
Ag      22.93443637      18.22146975      16.26140497 
Ag      15.53651670      17.41062340      25.99998966 
Ag      30.23335266      29.95999410      28.13546317 
Ag      29.83650730      18.42290967      19.89267076 
Ag      13.70278972      21.65800634      22.59108571 
Ag      30.40466712      17.64329578      30.75791925 
Ag      26.75551516      15.99913955      18.55786848 
Ag      20.89560767      32.31943416      26.27842801 
Ag      19.25919692      27.84503270      17.09642716 
Au      25.89513064      18.04088846      16.68321445 
Ag      14.53020479      19.55782561      24.39474871 
Ag      19.02705713      33.20821868      20.93064676 
Ag      23.87505132      22.06645507      12.78872797 
Ag      34.62607312      22.65929502      27.37201590 
Au      28.94926526      32.80652177      29.29350280 
Ag      19.36854031      31.14227441      16.53813287 
Ag      23.81059294      15.15414750      18.83411894 
Ag      14.10062061      27.06990582      19.46940350 
Ag      21.01357878      26.72051965      34.14134761 
Ag      19.85339547      28.65649062      32.02848442 
S      20.64175716      15.86623745      33.32806808 
S      28.66127750      32.37480054      19.58010962 
S      24.01216091      22.83382442      35.66805534 
S      24.21472872      18.20718316      35.54007111 
S      12.41931832      18.18032426      24.40464280 
S      32.31533305      17.28550460      29.31370600 
S      31.52795382      14.80366990      21.46628839 
S      29.66285659      18.94936259      16.51233410 
S      28.33334337      21.91283818      33.29738833 
S      23.12794105      27.76234174      34.74859878 
S      13.49468295      30.03083241      24.92441221 
S      16.33500599      18.17833496      17.17060425 
S      32.72763887      23.18623537      19.91693985 
S      26.82145015      30.74628691      33.45619314 
S      22.90619293      32.54411937      32.65555952 
S      17.23293275      31.55468348      17.57915660 
S      11.32549312      22.27358602      22.81831787 
S      25.07471009      13.14993646      26.87056181 
S      33.71733742      29.13732377      27.57951017 
S      28.57087911      26.54368762      33.34078307 
S      23.79510915      24.35196162      12.00303144 
S      27.49781784      25.69329307      13.18732076 
S      19.07792101      33.26495439      30.41286583 
S      28.89518759      17.53399733      32.64224928 
S      21.20790414      34.15245636      24.61258662 
S      30.83461609      32.34689927      27.94490539 
S      29.00636055      29.10140651      16.11610100 
S      33.53895862      17.23881889      23.95902626 
S      34.91464069      21.78628433      23.54180852 
S      19.22886165      13.62902790      25.58187191 
S      20.80458123      33.60226331      19.31553767 
S      12.71834404      19.43594845      19.77683822 
S      18.79404844      30.25236902      33.59343628 
S      31.72915737      31.07756066      23.40020017 
S      35.26226692      27.34280634      23.40388709 
S      31.07623175      30.19082607      31.34616318 
S      23.28206900      13.23426341      23.33748112 
S      32.20989222      19.19003697      19.74866160 
S      28.59046413      14.53861407      17.76568613 
S      15.49157100      30.46178907      29.23237831 
S      31.71955468      21.75971912      31.10632428 
S      20.66757149      27.01960398      14.28788904 
S      17.03100162      27.06092308      16.27885808 
S      27.51151146      12.87222574      22.05749604 
S      16.75008262      33.64002447      26.30850861 
S      15.19979978      21.67876130      31.07205801 
S      21.12630967      16.60376368      15.75172822 
S      24.72454014      29.03455541      13.44089609 
S      19.98644791      22.32679662      14.16387041 
S      21.27264710      31.39343509      15.09107901 
S      23.22259134      33.86894346      28.26882599 
S      13.78473527      17.49932932      28.97911568 
S      24.39312784      33.60555395      22.02390247 
S      27.35858892      20.90090774      12.94060627 
S      16.41917687      23.12079162      16.90788762 
S      26.08212321      16.62893100      14.62893915 
S      17.06790236      14.53919808      30.10857267 
S      28.60734346      13.99176227      29.87773717 
S      27.17901420      33.66118039      30.59449555 
S      32.69124532      28.14678365      19.72370708 
S      24.99485465      14.83657060      32.81649245 
S      14.28027810      29.49030605      19.47631190 
S      13.31328447      25.81699008      27.25765504 
S      34.73785065      20.28534114      27.75731581 
S      30.31526232      23.47926022      16.04686753 
S      18.77797249      25.79139173      34.41290187 
S      35.37354509      24.92687916      27.05421621 
S      19.88988239      20.84249365      34.50728869 
S      32.26475408      25.72080952      30.54173580 
S      23.47459448      19.67350103      12.91861780 
S      17.02948001      33.44189861      22.28751927 
S      15.67696792      26.15655100      30.49276859 
S      11.78446974      26.96660125      22.96186393 
S      24.41564324      13.15812341      17.50594829 
S      13.11875171      24.87675280      19.15661480 
S      21.61753907      13.68695419      29.26979051 
S      16.94224065      17.71421491      32.60285867 
S      15.88175579      15.76909943      21.33170830 
S      14.81647473      15.03004096      25.92365209 
S      25.34616864      32.84894812      16.27375451 
S      29.87511720      13.69550200      26.11139204 
S      20.31937996      13.65662845      19.45038712 
S      27.12872938      33.58808237      25.67023578 
S      12.89665965      21.67654157      27.10337563 
C      21.24508438      14.14002661      33.16974238 
C      30.43840597      32.77201147      19.83103807 
C      23.46416222      24.20438216      36.76276107 
C      23.49921357      19.10583370      36.97208970 
C      10.98581896      19.15637146      25.01185765 
C      32.45936815      15.46670367      29.08514300 
C      31.49484328      12.98440852      21.73688465 
C      31.24329977      19.63963851      15.88614325 
C      28.21870735      22.88884261      34.84983378 
C      22.77828773      29.21018788      35.82679761 
C      13.35472209      31.81105791      24.48500039 
C      16.89755443      16.81115231      16.07478523 
C      33.31120922      24.19263222      18.50073989 
C      26.59287262      32.48531114      33.98970658 
C      22.36607987      34.20334668      32.07787160 
C      17.16074883      33.38978940      17.62646734 
C      10.63736311      22.31522906      21.11178122 
C      26.54902225      12.17406322      27.36161403 
C      34.78679147      28.31097718      28.82369401 
C      28.10248264      27.63488849      34.74369609 
C      22.53820909      24.30684356      10.65775127 
C      26.85194155      26.32298819      11.59140555 
C      17.55644218      33.05927648      31.42760413 
C      29.73068509      18.42137506      34.01903746 
C      19.63872065      35.06930123      24.36856422 
C      32.32406771      32.64959085      28.97137470 
C      28.77621474      30.12771031      14.61014613 
C      34.48932733      16.74876643      25.45476987 
C      35.72092738      21.81531940      21.88986294 
C      17.61539258      12.93368090      25.04517646 
C      21.67878338      35.12757072      19.84455133 
C      12.66259882      17.90129347      18.76548055 
C      18.91149217      29.61691472      35.31380629 
C      33.42491218      31.58393223      23.89655049 
C      35.61198879      28.78582198      22.32103832 
C      31.94237454      29.86960151      32.93934504 
C      21.85613200      12.13454264      22.97212440 
C      33.35279879      17.84779431      20.25234706 
C      28.09400636      12.80100047      18.11388271 
C      14.21250586      29.72798476      30.33023195 
C      33.04196736      20.49829979      30.98236920 
C      19.34065429      26.35386389      13.20215357 
C      15.84312035      28.45398957      16.19547137 
C      26.51468649      11.38389726      22.47082391 
C      15.11283205      33.85948787      27.11765830 
C      14.95567043      20.79965488      32.66606691 
C      21.75360350      15.41915674      14.49560323 
C      23.21143686      29.40533086      12.46696035 
C      20.07288224      21.06984049      12.82582839 
C      21.68895201      33.16844869      15.35339758 
C      23.91539460      35.36986070      27.46448853 
C      12.26397150      17.85664426      29.95748372 
C      25.93931850      34.58728860      22.10203734 
C      28.98411719      20.70249097      12.09475852 
C      16.36154446      22.02459659      15.43674862 
C      27.84397342      16.17271548      14.38524291 
C      16.53560432      12.79023413      30.34354536 
C      29.80949500      13.86473234      31.26412685 
C      27.18157084      35.45830522      30.19858975 
C      32.61978063      29.37891139      18.36052779 
C      26.07454679      15.19259769      34.26344731 
C      12.84621860      30.09949482      20.45212788 
C      12.01092862      26.95423153      26.65415736 
C      36.21874797      19.82325447      26.76930972 
C      30.68882636      24.61210648      14.64784030 
C      18.86774491      24.66860423      35.86807883 
C      36.57570121      24.71070834      25.67783648 
C      19.69661464      19.62201621      35.86791831 
C      32.44382554      25.41434243      32.34548121 
C      24.56904789      18.84230172      11.70128093 
C      15.61988944      33.46729594      21.10709179 
C      15.18114798      25.34980974      32.06311636 
C      10.74461697      27.12601487      21.45320036 
C      22.90571972      12.48211971      16.70574724 
C      12.97502331      24.63429647      17.34045428 
C      21.51812003      12.13937893      28.28685087 
C      16.78661284      16.08999524      33.44237285 
C      14.10672153      15.30686112      21.32104366 
C      13.05512914      14.97550174      26.43558885 
C      27.06919152      33.41588817      15.97006703 
C      31.58898775      13.45114109      25.49021644 
C      18.54721988      13.28669173      19.11898126 
C      28.81468561      34.31307842      25.64244005 
C      12.06865973      22.16162172      28.67065505 
H      22.32121098      14.10539760      32.96554932 
H      21.02966532      13.62708437      34.11442882 
H      20.69651994      13.66240697      32.34850225 
H      30.89848214      32.97817817      18.85859875 
H      30.49279746      33.66872167      20.45948695 
H      30.97031194      31.95598049      20.33370235 
H      24.37081977      24.67578632      37.16117006 
H      22.88301989      24.95580660      36.21665166 
H      22.87395362      23.78999240      37.58707805 
H      23.26358867      18.37645929      37.75550601 
H      24.25489085      19.81286711      37.33330735 
H      22.59943645      19.66490490      36.69298427 
H      11.08621154      19.27594403      26.09716385 
H      10.94177432      20.14615525      24.54344915 
H      10.07467509      18.59321121      24.77991646 
H      33.23040509      15.29295225      28.32503819 
H      32.77803010      15.01431299      30.03091972 
H      31.51581189      15.01679330      28.75501166 
H      30.47659914      12.61915783      21.91200234 
H      31.91661402      12.49486755      20.85178738 
H      32.12274971      12.75852502      22.60636710 
H      31.14827391      20.70924852      15.66368475 
H      32.00568609      19.49097143      16.66143718 
H      31.51735310      19.08717513      14.97962184 
H      27.73724124      22.27716744      35.62040109 
H      29.23937859      23.14403098      35.15891619 
H      27.64927687      23.81277727      34.69456661 
H      22.13504819      29.94411365      35.32464999 
H      22.30156833      28.86785780      36.75242649 
H      23.73772885      29.68439077      36.06579153 
H      12.72066781      32.31270450      25.22454635 
H      14.33480342      32.29985549      24.44162224 
H      12.87593510      31.86836974      23.50010932 
H      16.97551276      17.20665521      15.05531611 
H      17.87525577      16.42426041      16.38193777 
H      16.15258123      16.00806443      16.09797457 
H      32.50184713      24.81511636      18.10020927 
H      34.13990953      24.82740238      18.83284115 
H      33.65395310      23.49678870      17.72551948 
H      26.96040640      33.18239682      33.22960923 
H      25.52327204      32.65636655      34.16076126 
H      27.15119954      32.61553516      34.92459138 
H      21.43713452      34.14789649      31.49914234 
H      22.21702165      34.83649677      32.95986304 
H      23.15933735      34.62144868      31.44683982 
H      16.28585923      33.68285809      18.21775181 
H      18.06707967      33.81900530      18.06761839 
H      17.04113896      33.75023740      16.59810452 
H      11.26968151      22.90713721      20.44057059 
H      10.57368370      21.28675649      20.73723577 
H       9.63572349      22.75716136      21.16035488 
H      27.43399549      12.79949775      27.50982563 
H      26.32279216      11.64938262      28.29705707 
H      26.75147272      11.44248499      26.57009398 
H      35.72209806      28.88064135      28.87665859 
H      34.27629613      28.33857273      29.79405075 
H      34.99895101      27.27165855      28.54899090 
H      28.16625737      27.03813598      35.66153135 
H      28.80249324      28.47614281      34.80272702 
H      27.08689483      28.02560852      34.62956462 
H      22.43314004      25.32041791      10.25311029 
H      22.88884747      23.63573960       9.86538333 
H      21.56884231      23.96210197      11.03210200 
H      25.99263125      25.73208383      11.25628459 
H      26.54941470      27.36736887      11.73499395 
H      27.66713687      26.26030441      10.86072011 
H      17.85169337      32.80385252      32.45206175 
H      17.01356399      34.01120849      31.42198508 
H      16.91615705      32.26673643      31.02428574 
H      30.65393326      17.89232801      34.27903277 
H      29.94811369      19.46013183      33.74749074 
H      29.04767559      18.41230316      34.87677233 
H      18.76443896      34.41210029      24.37893605 
H      19.54316808      35.79893554      25.18118873 
H      19.68328101      35.59421060      23.40681359 
H      32.21618517      32.19372368      29.96153449 
H      33.17298684      32.19242311      28.44878685 
H      32.47238663      33.73176153      29.05718521 
H      29.51837055      30.93417326      14.60461736 
H      28.93386988      29.48214812      13.73813333 
H      27.76528825      30.55284493      14.55639826 
H      34.26931053      15.69243530      25.65033505 
H      35.55977639      16.86157277      25.24976650 
H      34.21240123      17.34547029      26.33158986 
H      34.98657710      21.68269086      21.08791979 
H      36.20079450      22.79473985      21.77592579 
H      36.48077398      21.02749394      21.84517676 
H      17.06074699      12.57998629      25.92197031 
H      17.00804465      13.67542934      24.51791611 
H      17.82467383      12.08943742      24.37749036 
H      22.58890955      35.22109306      19.24055056 
H      21.01712960      35.98112734      19.65792537 
H      21.95416331      35.08246451      20.90330983 
H      13.04214440      18.14719403      17.76716432 
H      13.28189237      17.10488507      19.18960592 
H      11.62102727      17.56737708      18.69960831 
H      18.70841827      30.44523587      36.00190309 
H      18.15323965      28.83467983      35.43259313 
H      19.89552079      29.18901757      35.52990339 
H      34.00298445      30.73716590      24.28933911 
H      33.94239837      32.01920821      23.03408434 
H      33.32676904      32.34257357      24.68218276 
H      35.74197166      28.40910676      21.30018290 
H      34.79392161      29.51415492      22.32580393 
H      36.53681448      29.26337005      22.66332771 
H      31.51533995      29.00393794      33.45576266 
H      33.00050361      29.68124297      32.72297732 
H      31.85428869      30.75979897      33.57242040 
H      21.88730534      11.30584087      23.68952460 
H      20.90818128      12.67397267      23.08471729 
H      21.94668536      11.75050521      21.95038926 
H      33.46646992      17.16055473      19.40580106 
H      34.32511442      18.29160433      20.49781744 
H      32.98448426      17.28718984      21.11615696 
H      27.27867310      12.52805470      17.43358290 
H      28.96183507      12.15675056      17.93345371 
H      27.75743218      12.68518012      19.15042521 
H      13.25303578      30.22436317      30.14814669 
H      14.11855030      28.64922660      30.16431650 
H      14.52678850      29.90551752      31.36571148 
H      32.91607562      19.77943943      31.80108766 
H      33.01984849      19.96394301      30.02864526 
H      34.01026188      21.00230133      31.08159284 
H      19.41161321      25.26329937      13.11977715 
H      18.37377584      26.62370217      13.64595627 
H      19.44068194      26.81376213      12.21224793 
H      15.87048816      29.08077652      17.09099161 
H      16.08889411      29.06931727      15.32217354 
H      14.83484417      28.03850238      16.07829238 
H      27.16459294      10.62503356      22.91945278 
H      25.69265083      11.63514665      23.15070382 
H      26.09691810      11.00070452      21.53204340 
H      14.35849339      33.96934840      26.33016232 
H      14.85819898      33.00604618      27.75627290 
H      15.14132970      34.77557743      27.71833244 
H      14.68073893      21.54649170      33.42025490 
H      14.14104380      20.07356409      32.55819117 
H      15.85911556      20.27055403      32.98297544 
H      21.86605308      15.96593030      13.55173482 
H      22.72739781      15.00006127      14.78192988 
H      21.02688074      14.60969444      14.36181611 
H      22.44279733      29.88798267      13.08063476 
H      23.49508090      30.06570901      11.63961943 
H      22.82038658      28.46024873      12.07154080 
H      19.05081676      20.73023399      12.62005182 
H      20.49207266      21.53048666      11.92331692 
H      20.69612519      20.21653188      13.10887192 
H      22.70556783      33.34619969      14.98265547 
H      20.97397834      33.77335792      14.78457670 
H      21.63845140      33.43685095      16.41432607 
H      23.95181965      36.17605276      28.20603856 
H      24.91849211      35.18219078      27.06534282 
H      23.24421499      35.65059123      26.64302044 
H      12.15001165      17.08704827      30.72943386 
H      12.31618846      18.84491482      30.42556063 
H      11.40425796      17.81901315      29.27810096 
H      26.29682467      34.78084020      21.08506775 
H      25.69419643      35.53383245      22.59984282 
H      26.70941181      34.06309725      22.68042688 
H      29.79797021      21.11988317      12.69583506 
H      29.15888294      19.63211795      11.93428836 
H      28.94043891      21.21280385      11.12579550 
H      15.32815766      21.67716572      15.32143805 
H      16.66813102      22.60970324      14.56245014 
H      17.02982104      21.16390215      15.55624552 
H      28.28949353      15.77352660      15.30348554 
H      27.88303518      15.41518121      13.59374217 
H      28.39115017      17.06947014      14.07046303 
H      15.44827402      12.79351458      30.48408664 
H      16.79376347      12.17747809      29.47492139 
H      17.02283705      12.39053793      31.23998804 
H      30.80163163      13.67548474      30.83851848 
H      29.83437977      14.78136309      31.86409505 
H      29.52054639      13.01667918      31.89517156 
H      27.04210448      35.63117255      29.12675582 
H      26.35650876      35.91912951      30.75518276 
H      28.13107643      35.89614216      30.52628437 
H      32.84634578      28.85871936      17.42262301 
H      31.62803575      29.83862690      18.28135740 
H      33.37692628      30.14895889      18.54776274 
H      26.83694777      15.93960714      34.01505353 
H      25.44839543      15.56817266      35.08120344 
H      26.55902129      14.25739301      34.56602746 
H      12.77067830      29.60297065      21.42667637 
H      12.98569089      31.17655305      20.60340239 
H      11.92844204      29.93195904      19.87725637 
H      12.33265523      27.53551520      25.78533044 
H      11.12525182      26.36604352      26.38741251 
H      11.76651760      27.63845693      27.47636465 
H      36.14782044      20.18659026      25.73787674 
H      37.10393584      20.25160208      27.25279287 
H      36.30096888      18.73043890      26.77154081 
H      30.03059563      25.48620058      14.64548018 
H      31.73082326      24.93754478      14.75052151 
H      30.56616831      24.07058469      13.70249687 
H      19.61254606      23.87774402      35.72433524 
H      19.11373293      25.25905338      36.75755210 
H      17.87994771      24.21057290      35.99666223 
H      36.77939216      25.69217405      25.23443541 
H      37.49773739      24.29185487      26.09633374 
H      36.18104038      24.03684924      24.90904302 
H      19.74501637      20.13854678      36.83306840 
H      18.70646262      19.16580116      35.74508079 
H      20.46223867      18.83747785      35.82002294 
H      32.51032699      24.32961217      32.49789889 
H      33.36764874      25.89573964      32.68650971 
H      31.58704839      25.81075564      32.90180217 
H      25.52047861      19.37622168      11.60383313 
H      24.76020446      17.82146344      12.05212828 
H      24.04769022      18.81844854      10.73753542 
H      14.69722290      33.42390590      21.69824565 
H      15.64036031      34.40640244      20.54278244 
H      15.64959862      32.61493749      20.41882961 
H      14.87026047      26.14275506      32.75385947 
H      14.34578129      24.67013910      31.86092164 
H      16.01343818      24.78506745      32.50077018 
H      11.17745407      26.58831551      20.60232072 
H       9.74886949      26.72598630      21.67585003 
H      10.65768523      28.19121494      21.20951889 
H      22.40084700      11.84452403      17.44028626 
H      22.21522539      13.27421593      16.39748017 
H      23.20500595      11.88722620      15.83575799 
H      12.58887918      23.62181970      17.17269564 
H      12.26901269      25.36781443      16.93604036 
H      13.94870847      24.73320651      16.84810481 
H      22.52452167      11.95552098      27.88833631 
H      21.21927499      11.31982503      28.94943055 
H      20.80529592      12.24246235      27.46011989 
H      16.64761788      15.28729199      32.70989734 
H      17.70606407      15.90523461      34.01034022 
H      15.92610428      16.13533318      34.11959478 
H      13.45789397      16.19203748      21.35343313 
H      13.89862949      14.72314376      20.41656504 
H      13.91736923      14.69162278      22.20886583 
H      12.76812622      13.92448820      26.55552340 
H      12.90379469      15.51722885      27.37603813 
H      12.45528056      15.44420823      25.64669588 
H      27.77170479      32.57953807      15.89917194 
H      27.08533250      33.99399509      15.03932320 
H      27.36344990      34.05320763      16.81153978 
H      31.84497053      14.16646411      24.70003956 
H      32.26843872      13.58945675      26.33978621 
H      31.68818270      12.42731703      25.11256572 
H      18.45554730      12.84438907      18.12072254 
H      18.20822942      12.56414599      19.87048987 
H      17.92751332      14.18784638      19.18547682 
H      28.88624094      34.96489687      24.76380787 
H      28.95636415      34.90124124      26.55684888 
H      29.58610970      33.53873980      25.59520495 
H      11.89303448      23.24418089      28.63239445 
H      11.11063939      21.63320234      28.73779493 
H      12.69176415      21.92598967      29.54163129 
