699
Properties=species:S:1:pos:R:3 i=143 optimized=T E=-11184.5687057869 pbc="F F F" jobid=279_84-Ag-40_1-000006-PBE
Au      33.17812291      25.48919223      26.13799574 
Au      32.09905694      29.41186940      21.56286131 
Au      34.57781335      28.19818573      25.42698828 
Au      29.76743470      14.93674783      19.69449660 
Au      34.07081644      19.48773211      23.78555430 
Au      27.51255505      23.12406553      13.00533741 
Au      18.31529930      33.30128229      28.12227951 
Ag      28.31710135      29.78054583      17.77528615 
Au      24.89476879      21.25798241      23.24519117 
Au      26.27117011      23.31507662      24.94862249 
Ag      28.19614381      25.15821605      23.68028631 
Ag      23.73891314      21.65430876      29.04906533 
Au      23.33713673      27.89292635      27.02592945 
Au      26.89102106      23.12475532      22.03555506 
Au      22.30677876      19.59363127      27.36663008 
Au      27.20613438      21.18370134      26.73382481 
Au      21.98312313      21.50805863      22.66694338 
Au      20.99549277      23.57654033      20.80138616 
Ag      27.61301371      25.35239589      26.60371598 
Au      19.94114084      24.07986061      26.69949474 
Au      25.42506838      21.10862953      20.36353903 
Ag      24.28765090      25.77839886      28.82518651 
Au      23.82799764      27.73877789      24.08632401 
Au      26.18947071      27.65499112      27.64144000 
Au      20.87135631      21.92148461      28.43643242 
Ag      22.84361971      23.74547981      27.21119363 
Au      21.42667250      21.68366172      25.57778122 
Ag      19.43818616      19.83456188      26.89067548 
Au      25.78932393      19.11068962      25.07274393 
Au      25.23602163      23.64428224      30.71928046 
Au      23.03992642      25.42049746      19.56865821 
Au      20.95317387      27.97270713      23.52220168 
Ag      26.63710805      27.43536607      24.76289758 
Ag      22.54690530      21.34952370      19.79580411 
Au      21.93942071      25.88351453      25.36822560 
Ag      27.16765292      25.54166798      29.49254760 
Ag      20.08646913      19.65066697      24.01883074 
Ag      25.88842393      25.14896873      20.19738157 
Au      23.44422243      19.22282974      21.65110732 
Ag      22.31092487      23.92855630      30.07067625 
Ag      21.01274703      17.48732138      25.81776993 
Au      21.52539464      27.69073114      20.58698433 
Ag      24.37907907      27.44413447      21.25199533 
Ag      24.49964756      23.14200137      18.50667222 
Au      28.61459241      23.22151956      28.44507196 
Ag      18.57001690      21.96725383      25.10452792 
Au      26.68095358      21.32523204      29.64948596 
Au      22.38274104      30.13405796      25.13993946 
Au      27.27003230      27.20845223      21.85625885 
Ag      21.74392221      19.77973089      30.27738641 
Ag      18.47296035      26.39405697      27.69567081 
Au      23.12723751      21.76248875      31.93681177 
Au      21.56738402      23.46560010      17.90813044 
Ag      17.01535807      24.32739398      26.15766808 
Au      27.41157732      22.83590392      19.07629272 
Au      23.87432794      17.21185441      26.31291569 
Au      23.19947566      17.53141982      29.24068631 
Au      25.19160176      29.83150745      25.81479360 
Au      21.58526746      17.28517984      22.88994339 
Au      28.76479104      18.80093906      25.65914121 
Au      22.83182922      29.86710512      22.27315401 
Au      25.32178672      25.39788702      23.07227423 
Ag      20.07507231      25.68709214      18.93525206 
Au      29.50374546      27.21855152      25.38555428 
Au      19.36465353      24.26090326      29.56974329 
Au      17.93674266      22.19301034      27.93938218 
Ag      19.98743719      28.34810085      29.30728749 
Au      23.74630830      25.92033066      31.66230049 
Au      20.91141026      26.32535136      31.12615143 
Au      26.37335762      18.96255227      22.15199976 
Au      24.61887737      19.51846096      30.90781866 
Ag      20.34160085      17.70917403      28.66595032 
Au      28.83716510      24.90609936      20.76862654 
Ag      19.54424870      30.26940109      24.61067715 
Au      25.71616387      29.61321360      22.90360404 
Ag      24.94541839      27.27345299      18.21188774 
Au      28.40261862      20.77905278      20.91384832 
Au      29.06971916      27.50082052      28.28821816 
Ag      30.03933008      20.94266455      27.31757618 
Ag      18.13041561      23.91064775      20.31437471 
Au      17.71475889      19.69042782      20.65713223 
Ag      25.67836251      27.83295443      30.56491677 
Au      28.20545673      23.38581871      31.26401726 
Ag      21.88126951      30.24192982      28.05622323 
Au      21.74753584      24.14603711      32.92516585 
Ag      18.67436031      27.97732984      20.05982730 
Ag      16.24515337      21.95530943      21.61626888 
Au      30.51877160      25.11294983      27.13399978 
Au      23.39913767      23.55862888      24.31539257 
Ag      20.06332729      30.04792769      21.63539349 
Au      16.56812313      20.04112769      26.41632916 
Au      26.71502210      17.01671067      26.91395947 
Au      29.99138783      25.22947745      30.01591514 
Ag      17.61927549      28.48588984      25.85135425 
Ag      16.20009778      26.39447239      24.23731386 
Au      28.53488949      29.23157274      23.49929948 
Au      27.83246201      27.03789480      19.02610360 
Au      24.05740009      19.06318874      18.70557997 
Ag      27.31537459      16.85026712      24.00890435 
Au      26.91330693      18.75036993      19.24904761 
Au      25.91878236      21.41313193      32.61450536 
Au      12.52002728      18.78284420      21.92916290 
Au      22.98639137      21.12460169      16.93598812 
Au      26.27322910      29.22564871      19.94410256 
Au      19.88121662      19.62070843      32.40375909 
Au      26.06892191      17.22262189      29.75544710 
Ag      29.23252535      18.67916160      22.73388825 
Ag      27.63766520      29.78398779      29.33526245 
Au      15.18351883      22.44652975      27.42752877 
Au      26.02420752      20.89044740      17.33948366 
Ag      24.50559538      23.85087827      33.53830690 
Au      23.57437138      25.22183972      16.55219184 
Ag      17.51316679      17.89915772      28.19048104 
Ag      19.06146268      30.49950472      27.51495361 
Au      23.43668307      29.50311989      19.37098597 
Ag      22.42366509      25.62947976      22.44388703 
Ag      16.06090955      20.13375011      29.32828294 
Ag      27.45969885      19.16877912      31.42317639 
Ag      29.21444795      29.11269339      20.61498426 
Au      16.44138294      24.48162728      29.00922047 
Ag      32.02419970      22.84115879      26.10258663 
Au      16.66279816      21.69635797      18.75380377 
Au      24.92183238      31.58212772      20.80378704 
Ag      22.00444342      31.81068095      20.33431789 
Ag      20.73755538      25.47169270      16.05890941 
Ag      24.30978506      31.96486519      23.97202359 
Ag      20.62076305      29.76210078      18.71133343 
Au      23.15799161      14.95314158      21.62425768 
Au      30.27554102      22.57685235      19.59180550 
Au      25.06253969      22.92983820      15.58024531 
Ag      18.73664809      23.66126158      17.33641389 
Au      28.87546645      20.64088207      18.01502618 
Au      17.51317439      22.48717319      30.95441009 
Au      17.17694697      28.70610045      28.69817316 
Ag      27.87730923      16.71870716      21.06547768 
Au      15.65061614      26.84655655      27.07997351 
Ag      18.92191018      15.66951284      27.03317601 
Au      19.64619714      15.52574380      24.02208686 
Ag      17.99925625      26.68934074      30.67923609 
Ag      20.23455907      15.36043804      21.20517590 
Au      27.27738393      31.60219604      24.38806556 
Ag      24.89111005      15.08931424      28.27444745 
Ag      23.94358115      23.36061511      21.41329967 
Au      20.04633813      21.16238187      16.38608814 
Ag      27.88647202      22.84783693      15.97950392 
Au      31.33398184      20.38753807      21.73974350 
Au      26.75541521      31.80021424      27.50464261 
Ag      25.57265394      14.92907215      25.25782593 
Ag      28.69359782      16.32545610      28.91873692 
Au      26.03258099      14.90824272      22.28819966 
Au      32.50341699      22.59357630      23.27042488 
Ag      25.70083119      30.61363657      31.37453431 
Ag      22.93477778      30.83588307      30.82334740 
Au      24.17876662      16.94470980      31.91604706 
Ag      31.30376309      17.91184137      24.70815161 
Au      17.15378061      26.03884620      18.55957793 
Ag      31.53408420      22.94930683      28.88162197 
Au      29.36331427      16.09313006      25.99087473 
Ag      15.53418392      29.22833600      23.94330403 
Ag      16.04495225      28.99434097      21.03256883 
Ag      17.01564636      31.26670522      25.52362344 
Au      29.35671223      24.92424315      17.89684303 
Ag      30.71069753      18.11276996      27.64009018 
Ag      18.51067186      17.52933949      30.90611702 
Ag      23.91643246      19.63480776      33.66894673 
Au      18.07501999      30.73405406      19.77116188 
Au      17.51585107      30.98604041      22.64693275 
Au      14.18008072      27.12493920      22.35919089 
Au      32.57984305      20.03051353      26.35026205 
Ag      24.78014269      25.59300623      25.97892522 
Ag      32.92076563      26.84016344      23.19699046 
Au      24.81868707      20.13655021      14.90233792 
Au      20.12674773      30.99204865      30.17870987 
Au      31.73061864      27.76516648      27.12763455 
Au      22.58664876      28.36408958      32.57303164 
Ag      29.82724728      15.89960944      23.11556934 
Au      22.52044670      17.01074320      34.50992038 
Au      13.35790959      19.60264468      28.30948569 
Au      24.06772662      27.82735498      15.51451669 
Au      15.29566634      17.44249468      30.69294235 
Au      25.65485690      25.57339415      14.64881874 
Au      28.82608443      30.53682062      32.34787011 
Ag      22.74540457      30.10894809      16.72568310 
Au      22.03179028      21.71919785      34.90553503 
Au      31.43259983      28.35495481      31.01788665 
Ag      19.77611027      15.05802743      29.75849870 
Au      22.08222340      25.30838640      12.92483371 
Au      16.30852423      14.79721929      28.16201284 
Ag      25.20152020      32.94734182      29.64739186 
Au      26.65616970      14.55227917      30.97782308 
Au      28.65608986      13.36507645      24.16705011 
Au      16.27473655      17.04417145      19.41182704 
Ag      16.05709855      17.37250324      23.21013719 
Ag      20.79250724      15.53754588      17.77672295 
Ag      12.01250101      24.70911145      22.99781594 
Au      14.66438535      30.36073376      27.09856361 
Au      24.30936723      21.42308982      26.15680984 
Au      15.00372007      19.84762421      20.09666369 
Ag      25.39980870      31.05337073      17.99110057 
Ag      27.78463496      20.03628939      15.15147454 
Ag      30.15730643      27.06701122      22.53522018 
Ag      31.06701763      24.95678836      24.28959464 
Au      31.77326591      24.85398741      21.54665187 
Au      20.50928621      23.79983779      23.77410209 
Ag      25.11085752      14.97719929      16.05708103 
Ag      30.78805653      29.74179732      25.15683190 
Au      25.68877339      23.47774165      27.84754033 
Au      27.08453675      27.54173657      16.29131196 
Ag      20.93776580      31.09654146      33.12712623 
Au      17.67691740      23.99773329      23.26478589 
Ag      22.92805315      19.36122819      24.48669307 
Au      27.75344674      20.94969058      23.83721194 
Au      19.56326059      25.90964612      21.88712175 
Ag      25.00050324      30.83795249      14.89013907 
Au      25.16404987      19.34695382      27.96400008 
Au      19.01217394      26.11517233      24.82180289 
Au      20.49910740      28.18300917      26.44770324 
Ag      21.39808248      26.03155415      28.26362301 
Au      29.11782281      23.09164212      25.54528722 
Ag      19.13729120      21.75060831      22.15843123 
Ag      24.46768927      17.03481082      23.46853132 
Au      22.89552787      28.16991147      29.84357818 
Ag      20.63271264      19.48357707      21.10671953 
Ag      20.35925000      22.17863946      31.30323460 
Au      24.82461953      30.06011028      28.75644738 
Au      18.04645635      28.26961737      22.95748879 
Au      28.09979786      19.05448736      28.56830934 
Au      18.90865503      20.10020997      29.75337057 
Au      29.74392666      22.80552704      22.64937008 
Ag      19.62155331      21.56144582      19.19722399 
Ag      18.19248369      17.80132849      25.22360866 
Ag      15.70140637      22.20493076      24.55450825 
Ag      16.66785274      26.19483107      21.36801325 
Au      26.46761762      24.96715838      17.37092226 
Ag      28.06873931      29.53945751      26.36494970 
Ag      17.20331640      19.95206772      23.51338847 
Ag      18.77260161      17.66534913      22.38043789 
Au      30.63622712      20.72924693      24.48202521 
Ag      22.10004240      27.47359361      17.69491727 
Ag      21.15402581      19.28235379      18.23171603 
Ag      22.16968840      17.16811500      19.91271374 
Au      21.96547703      15.45608022      27.60024872 
Au      18.94161829      24.48647351      32.36366951 
Au      26.42299849      25.66853298      32.42769535 
Au      14.87386255      24.24207495      22.67106535 
Ag      29.60711465      20.82169884      30.19241238 
Au      23.72367839      32.08247860      26.83697174 
Au      22.52029101      15.15134166      24.82772215 
Au      24.94425460      16.95209279      20.57313686 
Au      28.52435458      27.73546397      31.08682294 
Au      19.30883394      17.48225721      19.55191581 
Ag      27.70656817      31.31165550      21.65428301 
Au      15.33962262      24.09673561      19.85209637 
Au      21.31131785      17.09153709      31.35767951 
Ag      21.28518226      32.19058510      23.14719519 
Au      14.13753600      24.66990654      25.27037870 
Au      22.33107132      23.09416797      14.91504226 
Ag      30.64248003      26.80070332      19.65441562 
Au      18.32125385      19.44109629      17.70250662 
Ag      22.93917167      18.26482619      16.22776092 
Au      15.51198092      17.47189844      26.10664305 
Ag      30.32093192      30.02385481      28.10954312 
Ag      29.76756408      18.40573213      19.76837200 
Au      13.60705612      21.59310524      22.69147031 
Au      30.50401626      17.54040724      30.95285387 
Ag      26.57076569      15.96640453      18.50301292 
Au      20.72636658      32.33440998      26.23407115 
Ag      19.25699256      27.86317600      17.12340366 
Au      25.92615131      18.05609508      16.62680710 
Au      14.51272494      19.55419901      24.44538527 
Au      19.09403825      33.40887088      20.81107322 
Au      23.72390303      21.99638271      12.38779537 
Au      34.70420814      22.53356147      27.43179696 
Ag      28.89486446      32.68171843      29.32818199 
Au      19.41614909      31.27309379      16.48077060 
Au      23.70226918      14.96249986      18.89539681 
Au      13.81533275      27.32478982      19.36766492 
Au      20.64190982      26.52010336      34.62782465 
Au      19.58139895      28.56685438      32.13059524 
S      20.69736330      15.92608874      33.47527795 
S      28.94019757      31.52410000      19.46770824 
S      23.99045264      22.78328259      35.74187690 
S      24.29013821      18.10993025      35.60636114 
S      12.40605612      18.19732757      24.20218144 
S      32.28135682      17.34417363      29.41527440 
S      31.39944241      15.05936952      21.38355858 
S      29.72666013      19.00822991      16.43851773 
S      28.18188636      22.02519402      33.31708875 
S      22.68247956      27.69303103      34.91858845 
S      13.52441426      30.23296035      25.04874377 
S      16.37161728      17.99279940      17.23360544 
S      32.61272587      23.27603659      19.83049950 
S      26.81049934      30.60501101      33.56785003 
S      23.03650092      32.27122246      32.87543090 
S      17.31085703      31.39943073      17.53082201 
S      11.30994284      22.41436568      22.67157642 
S      25.07303033      13.05264278      26.81251610 
S      33.79213897      29.09940309      27.46012938 
S      28.56325893      26.46186891      33.25669533 
S      23.75338636      24.23161744      11.63833421 
S      27.46168571      25.47922468      13.04177627 
S      19.35060016      33.30605726      30.24970111 
S      28.91885220      17.60885024      32.69625344 
S      21.28154792      34.16278770      24.69512374 
S      30.81632780      32.40803014      27.85400522 
S      29.00425574      28.83422000      15.54988455 
S      33.57987667      17.18404816      23.95258138 
S      34.78834290      21.72886189      23.51564305 
S      19.14896448      13.64301441      25.50234077 
S      20.82664116      33.70557484      19.23976466 
S      12.67247522      19.37852675      19.65786987 
S      18.66756917      30.30099979      33.55963207 
S      31.77365756      31.02822770      23.26484427 
S      35.37125123      27.32977189      23.39198256 
S      31.01797575      30.64250428      31.45404905 
S      22.98011673      13.24333792      23.34596836 
S      32.15076928      19.25290791      19.77319807 
S      28.39107146      14.41861682      17.85817583 
S      15.63229615      30.56389473      29.24581124 
S      31.65934136      21.87338842      31.11695293 
S      20.33263203      26.57637772      13.85697362 
S      17.05289610      26.96738121      16.29449192 
S      27.35106187      12.82632574      22.28696260 
S      16.98541004      33.67593694      26.21400554 
S      15.29348450      21.58018159      31.28563533 
S      21.08186856      16.74790269      15.66809299 
S      24.60553290      28.97972372      13.41606613 
S      20.07429708      22.29593973      14.23225435 
S      21.35670833      31.46559562      15.16796208 
S      23.32907633      33.94770535      28.35823837 
S      13.52621538      17.39393009      29.12232372 
S      24.34388442      33.60233125      22.04721382 
S      27.79100584      20.80270114      12.77013344 
S      16.38968837      23.01251696      16.71132287 
S      26.10677979      16.62780690      14.62770259 
S      17.47746447      14.13548691      30.09387865 
S      28.58583163      13.97817532      29.74351017 
S      27.25855528      33.64864870      30.84433855 
S      32.72501282      28.14910680      19.65714743 
S      24.93501649      14.72430696      32.58567113 
S      14.23138281      29.64821053      19.42301157 
S      13.38289900      25.87052547      27.24263425 
S      34.47254571      20.23448019      27.89152648 
S      30.27832153      23.69297525      16.02063978 
S      18.51442170      25.49173054      34.55700055 
S      35.33019822      24.76716730      27.05096113 
S      19.93122788      20.63303638      34.62573009 
S      32.15266007      26.12283822      30.77763940 
S      23.63013118      19.67910029      12.82872947 
S      17.24739976      33.40915161      22.28637354 
S      15.54323697      26.16509667      30.54592623 
S      11.80252542      27.13167599      22.98748009 
S      24.21436456      13.16581716      17.35343067 
S      13.18395540      25.06130309      19.12214183 
S      21.93711092      13.79755479      29.38537714 
S      16.68247719      17.39029689      32.59287716 
S      15.90427267      15.73091521      21.35521653 
S      15.04609288      15.09068112      26.18780537 
S      25.53749742      32.75837785      16.22800401 
S      29.96959435      13.70880939      26.09218032 
S      20.09446396      13.75539609      19.30925842 
S      27.02495215      33.59629610      25.77242338 
S      12.84315888      21.76682032      27.54822008 
C      21.21687602      14.17481690      33.31217510 
C      30.59160180      32.33067058      19.37743082 
C      23.35242048      24.08718663      36.86833582 
C      23.57655034      18.88808217      37.10881389 
C      11.04018289      19.21060793      24.88899387 
C      32.53218206      15.53915541      29.18712005 
C      31.78532378      13.28765902      21.68301179 
C      31.30775543      19.74425199      15.86734076 
C      28.01617987      23.06371674      34.81469287 
C      22.31555283      29.12120875      36.00962046 
C      13.37363935      31.96111534      24.44554826 
C      17.00483207      16.64934296      16.15411885 
C      33.11764232      24.27814526      18.38659630 
C      26.67442725      32.31238078      34.22601138 
C      22.55507019      33.98148347      32.40344589 
C      16.96386711      33.20188094      17.50451410 
C      10.73360808      22.38319625      20.92890904 
C      26.59899339      12.12555996      27.22932298 
C      34.78318646      28.27271613      28.76407566 
C      28.22811371      27.51651000      34.71587003 
C      22.98769902      24.14866943       9.96790554 
C      26.85722424      26.05794343      11.41342765 
C      17.89794215      33.31761911      31.37366646 
C      29.74153749      18.56211832      34.03385197 
C      19.82623338      35.24138752      24.42981623 
C      32.35699791      32.75597789      28.78700548 
C      28.50027927      29.90131905      14.14884173 
C      34.45662489      16.59991975      25.45663195 
C      35.50824530      21.78302623      21.82823901 
C      17.57364148      12.89602548      24.93397255 
C      21.70091640      35.23536395      19.75939530 
C      12.60965181      17.83383097      18.67132841 
C      18.55855817      29.61786518      35.25966170 
C      33.46039031      31.54688479      23.77176341 
C      35.80407242      28.76400160      22.33172035 
C      32.07992993      30.98577920      32.91819644 
C      21.46101665      12.28870396      22.98995931 
C      33.38583377      17.99490720      20.26595458 
C      27.81477511      12.72359613      18.27620920 
C      14.40498751      29.84212669      30.40457783 
C      33.03053342      20.66276100      31.24432322 
C      18.82640774      25.78887079      13.16278825 
C      15.76957321      28.27066559      16.21508303 
C      26.24599765      11.48477486      22.87627308 
C      15.36262384      34.13171628      26.94425830 
C      15.34692318      20.69790288      32.89043507 
C      21.72412244      15.57344350      14.40925880 
C      23.03458351      29.31348867      12.53003148 
C      20.18376779      20.97687734      12.96526801 
C      21.83738337      33.22000671      15.43249804 
C      23.99978187      35.41042308      27.47972694 
C      12.04447462      17.26776132      30.20880225 
C      25.84902455      34.64811650      22.11830511 
C      29.54095070      20.61668131      12.23780527 
C      16.37649293      21.77128533      15.36350616 
C      27.85901205      16.10374639      14.45648507 
C      17.73711769      12.33267717      29.84000569 
C      29.80951335      13.69389803      31.08470800 
C      27.30565337      35.46485283      30.54364161 
C      32.61328511      29.31483319      18.24071565 
C      25.90719007      14.99174001      34.12145796 
C      12.87613273      30.35378385      20.44187332 
C      12.15518031      27.10388391      26.67571372 
C      35.99534713      19.54017491      27.13563486 
C      30.60547846      24.91715170      14.69408135 
C      18.57369991      24.13724601      35.79244496 
C      36.51773130      24.61112260      25.66079279 
C      19.88116064      19.30483660      35.88716129 
C      32.25346012      25.50140961      32.50019213 
C      24.81455813      18.87821997      11.68045986 
C      15.77767970      33.58505497      21.19941209 
C      15.12263587      25.34610221      32.13173240 
C      10.72469086      27.44639774      21.53308294 
C      22.64494053      12.58910369      16.59863607 
C      13.08909612      24.79392845      17.30952362 
C      21.61897218      12.21361210      28.51539918 
C      16.60518921      15.68990913      33.27726201 
C      14.13584403      15.24178459      21.26493543 
C      13.27830791      14.83961553      26.59348674 
C      27.31794710      33.12938090      15.95252703 
C      31.71341290      13.58234605      25.53145134 
C      18.32043704      13.44790883      18.93875974 
C      28.64032991      34.46133555      25.80307530 
C      12.21386001      22.61875330      29.04817066 
H      22.22764789      14.09236141      32.89846707 
H      21.17737943      13.71473526      34.30628623 
H      20.50365050      13.67930142      32.64220700 
H      31.04476013      32.11648393      18.40394249 
H      30.44410205      33.41177850      19.48213246 
H      31.23795916      31.96177730      20.18306916 
H      24.21371405      24.67644600      37.20547157 
H      22.64201929      24.74731351      36.35793266 
H      22.87378252      23.61127205      37.73128325 
H      23.25731096      18.10650820      37.80649794 
H      24.37415434      19.48885567      37.56232699 
H      22.73802566      19.54781338      36.86100881 
H      11.18141874      19.25984622      25.97613629 
H      11.04189687      20.22159186      24.46637142 
H      10.09448565      18.70882254      24.65342281 
H      33.32315155      15.41703646      28.43703673 
H      32.85933590      15.09772047      30.13492142 
H      31.61699849      15.04761990      28.83866053 
H      30.90006202      12.73646689      22.01853856 
H      32.17863839      12.84660592      20.76056131 
H      32.55886538      13.25194029      22.45961327 
H      31.18203044      20.80006459      15.60281409 
H      32.04040294      19.65572774      16.67914096 
H      31.64871303      19.17458788      14.99433059 
H      27.65862693      22.42933214      35.63382726 
H      29.00705395      23.46981432      35.05027362 
H      27.31227097      23.88762659      34.64402505 
H      21.50194638      29.73886985      35.61210251 
H      22.05493992      28.74833215      37.00674744 
H      23.22989346      29.72409083      36.06518500 
H      12.73591350      32.52866428      25.13208567 
H      14.35364392      32.44317673      24.35739604 
H      12.89694114      31.91502555      23.45876868 
H      17.15526186      17.07500312      15.15488465 
H      17.95843148      16.25520187      16.52252951 
H      16.25421686      15.85239873      16.10994597 
H      32.32486257      24.97569678      18.08870748 
H      34.02430962      24.83170763      18.65634887 
H      33.32099032      23.59176916      17.55599716 
H      26.95357633      33.04780581      33.46331284 
H      25.62640104      32.46113766      34.51307691 
H      27.32547958      32.40134222      35.10249698 
H      21.74906443      33.98747752      31.66155841 
H      22.23512443      34.51426551      33.30607233 
H      23.43809743      34.47348309      31.97719078 
H      16.00562075      33.35902516      18.01367154 
H      17.75473742      33.76523332      18.01203850 
H      16.87930841      33.52276989      16.46000605 
H      11.41699731      22.93550591      20.27511177 
H      10.66701635      21.33959400      20.59996808 
H       9.74096966      22.84816722      20.90018157 
H      27.44572236      12.78783796      27.42933302 
H      26.40369033      11.52427954      28.12508088 
H      26.84763466      11.46414288      26.39048713 
H      35.76976497      28.74974288      28.78965391 
H      34.26256762      28.42550758      29.71806586 
H      34.88957531      27.20061040      28.56864651 
H      28.14879690      26.85650750      35.58824465 
H      29.07072567      28.20623466      34.84519558 
H      27.30765574      28.09564618      34.59954228 
H      22.89357429      25.17334083       9.58998695 
H      23.65764728      23.57306884       9.31897197 
H      22.00320847      23.67385533      10.00123411 
H      25.97169623      25.49689584      11.09833633 
H      26.60378225      27.11978639      11.52222730 
H      27.67084762      25.93530218      10.68925201 
H      18.25487856      33.11118578      32.39008708 
H      17.44416261      34.31443160      31.32946655 
H      17.16607477      32.55853430      31.07859736 
H      30.59920786      17.99159788      34.40615270 
H      30.06018335      19.54929829      33.68328887 
H      29.00408189      18.68718921      34.83597829 
H      18.90688856      34.66837633      24.28035465 
H      19.70904757      35.88809396      25.30707801 
H      20.02345527      35.85218387      23.54030384 
H      32.27987952      32.39127744      29.81660754 
H      33.18869271      32.25036773      28.28239210 
H      32.52311797      33.83943801      28.78602570 
H      29.30040149      30.62935152      13.96809931 
H      28.36525984      29.27390803      13.26038089 
H      27.56112495      30.43375589      14.35237119 
H      34.21526392      15.53704653      25.57861913 
H      35.53698785      16.71167981      25.31350846 
H      34.13430477      17.15219686      26.34577530 
H      34.79117117      21.42996658      21.07958066 
H      35.76489618      22.82822865      21.61757095 
H      36.41372061      21.16615242      21.81674175 
H      17.08783270      12.40953975      25.78826146 
H      16.89635571      13.64927344      24.52119725 
H      17.81020653      12.14971883      24.16621033 
H      22.53383033      35.37798202      19.05994479 
H      21.01250153      36.08434717      19.69218139 
H      22.10053054      35.14009555      20.77470443 
H      12.84246904      18.10068727      17.63372594 
H      13.34462173      17.10240299      19.02455601 
H      11.59573970      17.42349726      18.73738393 
H      18.65226729      30.44172325      35.97626221 
H      17.57634863      29.14263105      35.36675388 
H      19.33398305      28.86333928      35.44299960 
H      34.03670184      30.70341446      24.17474220 
H      33.98114815      31.98915722      22.91526091 
H      33.33601313      32.30472457      24.55513209 
H      36.08461840      28.35935679      21.35180264 
H      34.95238644      29.44095403      22.20184329 
H      36.65375157      29.29783089      22.77055649 
H      31.89655000      30.26583840      33.72057135 
H      33.12657728      30.93059895      32.59734548 
H      31.84965945      31.99960340      33.26544407 
H      21.26468879      11.64351800      23.85439745 
H      20.60221388      12.95106775      22.82994650 
H      21.64176036      11.68687043      22.09208674 
H      33.67202160      17.45281607      19.35586756 
H      34.26279259      18.50088477      20.68697503 
H      32.98704775      17.28226543      20.99331164 
H      27.00819259      12.46311637      17.58066259 
H      28.65508141      12.03236165      18.14865852 
H      27.44457094      12.67323403      19.30546638 
H      13.50236851      30.46294902      30.39568343 
H      14.16551634      28.80727078      30.13780983 
H      14.86077639      29.86082384      31.40221765 
H      32.85567652      20.04131389      32.13059508 
H      33.10086933      20.02054773      30.36228338 
H      33.97038240      21.21476130      31.36059278 
H      18.88118128      24.69757451      13.24550270 
H      17.97298758      26.16036873      13.74412666 
H      18.72757588      26.08633575      12.11314103 
H      15.90861827      29.03447808      16.98533214 
H      15.84094354      28.74214021      15.22705188 
H      14.78330878      27.80622790      16.33510590 
H      26.85269846      10.58917222      23.05057595 
H      25.71632273      11.77695441      23.78996049 
H      25.51547159      11.29450354      22.08107853 
H      14.67278954      34.32089061      26.11291029 
H      14.96594600      33.32635001      27.57270171 
H      15.48017438      35.04864294      27.53205334 
H      15.15211099      21.42591690      33.68670185 
H      14.56889846      19.92546862      32.89189017 
H      16.31903153      20.22345331      33.05509160 
H      21.89075601      16.13332443      13.48136531 
H      22.67241320      15.11355506      14.71962093 
H      20.97611568      14.79215982      14.23161889 
H      22.32212489      29.85948623      13.15745997 
H      23.27643601      29.90968422      11.64208805 
H      22.60085819      28.35113805      12.23025467 
H      19.16259829      20.63895496      12.75115971 
H      20.63748960      21.40050711      12.06088029 
H      20.78874460      20.13416278      13.31280193 
H      22.85910444      33.34788555      15.05431006 
H      21.14702066      33.85704021      14.86869028 
H      21.80187370      33.48176642      16.49534614 
H      24.03522524      36.24673972      28.18796886 
H      25.00137850      35.21114253      27.08104399 
H      23.31833745      35.64857629      26.65322269 
H      12.08162333      16.29575092      30.71385216 
H      12.02406880      18.07218373      30.94949585 
H      11.15343500      17.32248622      29.57280224 
H      26.08963130      35.00135512      21.10971801 
H      25.62496538      35.50174550      22.76969440 
H      26.69395317      34.08647681      22.53562151 
H      30.22504755      21.09082975      12.94816477 
H      29.75754708      19.54309547      12.18247474 
H      29.66437057      21.06589913      11.24604899 
H      15.46041080      21.17448974      15.43469852 
H      16.39415955      22.32050024      14.41417784 
H      17.25435050      21.11570156      15.42646440 
H      28.24338754      15.66204576      15.38171082 
H      27.90320936      15.36590692      13.64668412 
H      28.45684468      16.98470239      14.19474279 
H      16.76513229      11.82689701      29.84887714 
H      18.25175035      12.13646486      28.89416917 
H      18.34907075      11.96578071      30.67278681 
H      30.76339272      13.44019212      30.60694473 
H      29.93712667      14.58565556      31.70815220 
H      29.47585631      12.84853624      31.69633970 
H      27.17081370      35.69893184      29.48301788 
H      26.50214305      35.93471511      31.12308054 
H      28.27248536      35.85336780      30.88433547 
H      32.90076166      28.75507881      17.34248797 
H      31.59355087      29.69468468      18.11294785 
H      33.31125412      30.14468184      18.39550056 
H      26.67176768      15.76223791      33.97631081 
H      25.21017787      15.30554030      34.90817333 
H      26.37987850      14.04044113      34.39104717 
H      12.80288559      29.84832974      21.41135078 
H      13.10690378      31.41482311      20.59666562 
H      11.92961627      30.26480430      19.89704444 
H      12.46130846      27.59331511      25.74657942 
H      11.20058434      26.58863152      26.51531786 
H      12.04676048      27.85622318      27.46649005 
H      36.02919725      19.73486696      26.05763630 
H      36.86303320      19.98944414      27.63151161 
H      35.98924346      18.45954079      27.31930869 
H      29.89647577      25.75045767      14.72793691 
H      31.62616146      25.29520175      14.82633431 
H      30.51880439      24.40995801      13.72544932 
H      19.44601746      23.49299682      35.64030940 
H      18.59990292      24.58541700      36.79216173 
H      17.65994337      23.54308922      35.67403298 
H      36.70840338      25.61791807      25.27025533 
H      37.44323279      24.17713585      26.05616308 
H      36.11307022      23.97227000      24.86864104 
H      19.96222782      19.75996427      36.88084936 
H      18.91213977      18.80080761      35.78863666 
H      20.68870999      18.57543291      35.73286481 
H      32.36431475      24.41065551      32.43741547 
H      33.13222827      25.94836662      32.97844344 
H      31.34384698      25.74876732      33.05951776 
H      25.75337200      19.43888556      11.62145929 
H      25.01005721      17.87092474      12.06790717 
H      24.33874510      18.82105115      10.69473011 
H      14.89018571      33.53298353      21.84176483 
H      15.81714436      34.56279229      20.70623056 
H      15.74043820      32.78393481      20.45347568 
H      14.94396380      26.13143232      32.87582336 
H      14.21493308      24.74896903      31.98848645 
H      15.93819109      24.69525323      32.46821100 
H      11.12596524      26.97916967      20.62717202 
H       9.73007618      27.04157232      21.75329526 
H      10.65041946      28.52988998      21.38419022 
H      22.07884767      12.05109441      17.36734488 
H      22.03701884      13.42266367      16.23213907 
H      22.89746199      11.91597553      15.77112940 
H      12.85059793      23.73558173      17.14964801 
H      12.28916838      25.42288817      16.90355273 
H      14.04461469      25.02209608      16.82527040 
H      22.53760324      11.92839256      27.98667023 
H      21.36988224      11.45691174      29.26911991 
H      20.79798356      12.31326372      27.79666109 
H      16.64187382      14.93609955      32.48408835 
H      17.47574910      15.57391256      33.93455754 
H      15.68153931      15.58817008      33.85782471 
H      13.47415169      16.11811445      21.28911917 
H      13.96751252      14.66261943      20.35017161 
H      13.93022345      14.61139407      22.13871095 
H      13.11099648      13.76577957      26.73513377 
H      13.00299045      15.39438572      27.49622358 
H      12.69383239      15.20427894      25.73992106 
H      27.93880132      32.22869625      16.00646403 
H      27.43104147      33.60228326      14.97062896 
H      27.63650099      33.82507245      16.73709662 
H      31.93235557      14.30183205      24.73458667 
H      32.34685963      13.79249757      26.40168556 
H      31.89744988      12.56041024      25.18178015 
H      18.23818710      13.00008116      17.94199790 
H      17.93304335      12.74613038      19.68667380 
H      17.73286135      14.37257988      18.98257415 
H      28.72345119      35.04344168      24.87740325 
H      28.65231251      35.13757305      26.66652609 
H      29.47635408      33.76033339      25.88394280 
H      12.19419465      23.69187731      28.81994564 
H      11.19969743      22.25488930      29.24814484 
H      12.86394081      22.43127016      29.90980159 
