699
Properties=species:S:1:pos:R:3 i=93 optimized=T E=-10866.8748494878 pbc="F F F" jobid=279_84-Ag-10_0-000007-PBE
Au      33.26004893      25.42181101      26.04792479 
Au      32.14098353      29.43601952      21.54010494 
Au      34.70356092      28.05252061      25.40205279 
Ag      29.96252215      15.22798016      19.76930748 
Au      34.09898921      19.55190075      23.66871922 
Ag      26.86101538      23.39270152      13.17691863 
Au      18.10520674      33.31461535      28.16222458 
Au      28.59060050      30.78211848      18.03461960 
Au      24.95233659      21.25443926      23.22200692 
Au      26.32987950      23.29398598      24.90505622 
Ag      28.25437372      25.14632924      23.63151068 
Au      23.79031271      21.66477086      29.03810886 
Au      23.42875384      27.98942576      26.97053569 
Au      26.94129429      23.09602647      21.99068554 
Au      22.38596819      19.56731894      27.36659311 
Au      27.25371003      21.17563616      26.70747551 
Au      22.04419230      21.51547281      22.71764624 
Au      21.03555583      23.60236360      20.85163992 
Au      27.67645165      25.34412077      26.56619129 
Au      19.97075427      24.11794738      26.72137572 
Ag      25.49426133      21.08863011      20.30201336 
Au      24.35680430      25.81195887      28.78958537 
Au      23.89907987      27.78862429      24.04316728 
Au      26.26554242      27.73894574      27.59862458 
Au      20.89619260      21.96955523      28.42963395 
Au      22.89289115      23.78956877      27.19479693 
Au      21.49054403      21.72873697      25.60222946 
Au      19.51325227      19.86454863      26.93779305 
Au      25.85131670      19.11000696      25.07062566 
Au      25.27331315      23.63721802      30.74645124 
Au      23.02373698      25.39211424      19.54865439 
Au      20.99846429      27.99606953      23.54301700 
Au      26.69952076      27.45681211      24.70683383 
Au      22.59398722      21.38474704      19.80704088 
Au      21.95533731      25.93741200      25.37017120 
Au      27.23360743      25.54930629      29.46221781 
Au      20.16026428      19.65726376      24.06081365 
Au      25.92527265      25.09034076      20.14491348 
Au      23.49385226      19.21009883      21.60636426 
Au      22.32052447      23.99563031      30.03656157 
Au      21.04174967      17.44256346      25.83006677 
Au      21.59025591      27.69180707      20.56566653 
Au      24.44390955      27.47913301      21.16968895 
Au      24.55700661      23.13465852      18.44837786 
Au      28.66413166      23.21515316      28.47798089 
Au      18.60201433      21.96883906      25.14593396 
Au      26.70098872      21.31487938      29.63621521 
Au      22.44158418      30.12681915      25.12540432 
Au      27.26088931      27.19936306      21.80518139 
Au      21.75208533      19.76149150      30.21188848 
Au      18.48598526      26.45150900      27.72977789 
Au      23.12357634      21.79011895      31.94330133 
Au      21.62366070      23.44900266      17.88203142 
Au      17.05567240      24.29710317      26.22553650 
Au      27.47917048      22.81703704      19.03278094 
Au      23.86789522      17.11087751      26.29283960 
Au      23.24206145      17.44390028      29.22931792 
Ag      25.28362949      29.87392560      25.73716935 
Ag      21.61745438      17.23018063      22.89040385 
Au      28.80188800      18.76812246      25.67126739 
Au      22.89344409      29.84520211      22.18880823 
Au      25.38240406      25.39292478      23.04579083 
Au      20.09019521      25.67729109      18.93987116 
Au      29.56063020      27.22485106      25.39958099 
Au      19.32503800      24.33684627      29.61375335 
Au      17.96819161      22.18564665      28.01148897 
Au      19.99652977      28.47512082      29.45204155 
Au      23.74684106      25.90621522      31.65235999 
Au      20.95361722      26.40199876      31.21319146 
Au      26.36116465      18.98786627      22.09572403 
Au      24.56659071      19.49579058      30.90968119 
Au      20.33906103      17.60521289      28.78827949 
Au      28.93009357      24.87896572      20.75153919 
Au      19.52601098      30.25656186      24.61507303 
Au      25.75092242      29.67337544      22.76948893 
Au      24.96990897      27.10197421      18.19462882 
Au      28.42878585      20.77955824      20.86698011 
Au      29.17101222      27.52985121      28.30198502 
Au      30.09528395      20.92574661      27.32559552 
Au      18.13369656      23.90312147      20.31766426 
Au      17.69759084      19.65390179      20.66369473 
Au      25.75267985      27.85782000      30.45698852 
Au      28.17867383      23.48129988      31.31142707 
Au      21.95501015      30.26893294      28.10488749 
Au      21.79480168      24.18226174      32.94768065 
Au      18.68572694      27.97248339      20.07015984 
Au      16.25068319      21.91627950      21.69899013 
Au      30.57524144      25.15181373      27.17686637 
Au      23.43240791      23.57476848      24.31685401 
Au      20.04097728      30.03079802      21.63054650 
Ag      16.55584069      20.01452866      26.49838203 
Au      26.74480620      17.01414568      26.90123235 
Au      30.02733357      25.31735335      30.07219604 
Ag      17.56225951      28.49647113      25.90208362 
Au      16.18626854      26.35643939      24.33048866 
Au      28.53482840      29.28067609      23.38631841 
Au      27.88509430      26.93106038      18.98188647 
Au      24.11524671      19.09608437      18.68255414 
Au      27.35664485      16.78702139      23.96439096 
Au      26.95005682      18.76498997      19.19415101 
Au      25.91992653      21.39283829      32.61875228 
Au      12.50851946      18.77704250      22.02780633 
Au      23.07172409      21.13627035      16.90450027 
Au      26.36589232      29.24742003      19.70734295 
Au      20.10790405      19.72983291      32.50009167 
Au      26.11805065      17.22127998      29.76590999 
Au      29.22113609      18.64420069      22.71531497 
Ag      27.68395297      29.87938587      29.23832669 
Au      15.19113331      22.36844569      27.48470275 
Ag      26.06305203      20.82847207      17.27066772 
Ag      24.55899929      23.84170178      33.54458380 
Au      23.62724272      25.17565928      16.36674520 
Au      17.52875278      18.00323748      28.29093625 
Au      19.04529735      30.51236957      27.54382434 
Au      23.55177401      29.51892609      19.19970033 
Au      22.45998258      25.66217654      22.45873785 
Au      16.11648618      20.07841400      29.53700427 
Au      27.44660978      19.19059535      31.39148002 
Au      29.19345439      29.00523569      20.55519604 
Au      16.43484293      24.42273264      29.07413289 
Au      32.02327674      22.82673260      26.10502398 
Au      16.62755564      21.66913412      18.81164250 
Au      24.90422326      31.65959617      20.67270227 
Au      21.99577451      31.76195264      20.28756300 
Au      20.71930212      25.40937680      16.02613756 
Au      24.27811956      31.97883901      23.94116691 
Au      20.65397323      29.74955110      18.69428003 
Ag      23.03403726      14.97016142      21.61757827 
Au      30.33565396      22.53078255      19.58235806 
Au      25.11610701      22.87885744      15.47423918 
Au      18.75742269      23.71995509      17.29873218 
Au      28.89316114      20.59754946      17.94640976 
Ag      17.54569970      22.47552037      30.99876181 
Au      17.15088696      28.72482968      28.77253068 
Ag      27.79636192      16.67538980      21.06121882 
Au      15.63771266      26.79519320      27.18974157 
Au      18.75959615      15.69898139      27.22877884 
Au      19.56277632      15.44189791      23.96716151 
Au      18.05017928      26.75777032      30.79825585 
Au      20.08326041      15.35631886      21.22603022 
Ag      27.24372455      31.66195967      24.27887986 
Au      24.92588719      15.17287226      28.32852414 
Au      23.99273844      23.34596684      21.42029195 
Au      20.12547378      21.21065943      16.41406121 
Au      27.88418538      22.71689344      15.90442298 
Au      31.45616234      20.28696306      21.81046035 
Au      26.84184092      31.88774322      27.39866439 
Au      25.69938046      14.86951299      25.18330549 
Ag      28.75171498      16.27089311      28.87883699 
Au      25.89620683      14.86955495      22.26040201 
Au      32.56788808      22.59208517      23.26712676 
Au      25.74614998      30.47684026      31.48260680 
Au      22.94794886      30.86949510      30.80327164 
Au      24.26695780      16.92166839      31.93430147 
Au      31.29918882      17.82879425      24.67111857 
Au      16.95170581      26.11931566      18.64810566 
Au      31.60516403      22.98132181      28.85390367 
Au      29.37245275      15.99431710      25.96861335 
Au      15.52488420      29.23479576      23.93457696 
Au      16.06415081      28.99095215      21.02521749 
Au      16.99991615      31.25293774      25.53635463 
Au      29.53108076      24.88879559      17.88825913 
Au      30.75128988      18.01943393      27.59769342 
Ag      18.58177868      17.59312837      31.02135493 
Ag      23.83053918      19.68873533      33.67578489 
Au      18.09018410      30.78525709      19.74457423 
Au      17.45817075      31.06882796      22.62771625 
Au      14.19720524      27.06842735      22.34249950 
Au      32.63009453      19.95523202      26.29875008 
Au      24.83008279      25.63142096      25.93196217 
Au      32.90743495      26.83740124      23.06682656 
Au      24.68913128      20.02255023      14.86872107 
Au      20.13372784      31.20567239      30.14399480 
Au      31.85887316      27.75036455      27.07979277 
Au      23.80017537      28.58515219      32.56030504 
Au      29.81700580      15.81939687      22.96029764 
Au      22.53229831      16.98487245      34.47021775 
Au      13.48470701      19.37656991      28.41689712 
Au      24.17819148      27.91204349      15.54621693 
Au      15.37540250      17.45031579      30.96257904 
Au      25.79588317      25.70764894      14.60553436 
Ag      28.62226497      30.73087241      31.99342834 
Au      22.61414072      30.12835608      16.60042837 
Au      22.00300566      21.78020152      34.98516482 
Au      31.44088410      28.40912813      31.40709463 
Au      19.24059939      13.92840261      29.55044557 
Au      22.18268051      25.20740465      12.79907125 
Au      15.94573875      14.68236414      28.10658420 
Au      25.65766298      33.72925948      29.35458728 
Au      26.67796946      14.50791666      30.97846425 
Au      28.37019492      13.33183804      24.00533617 
Au      16.22899622      17.08832139      19.38983474 
Ag      16.13907529      17.23180284      23.31714145 
Au      20.70430365      15.41229941      17.66887437 
Au      11.83810799      24.60001740      23.08491405 
Au      14.58284559      30.24333257      27.07216348 
Au      24.35864301      21.41612252      26.12591373 
Au      14.94885495      19.84752578      20.16733897 
Au      25.50161382      31.24750626      17.95178010 
Au      28.80435027      20.46115297      14.25986210 
Au      30.19136908      27.06180683      22.52394870 
Au      31.12864636      24.94344249      24.24501664 
Ag      31.81826856      24.75807051      21.42839328 
Au      20.52717617      23.84018789      23.80790814 
Au      25.25471892      14.79252722      16.07340649 
Au      30.78779670      29.74900839      25.03585708 
Au      25.77203708      23.44852532      27.82875761 
Au      27.09286923      27.67550684      16.36224020 
Au      20.75012857      31.46934931      33.16883040 
Au      17.67306506      24.01463575      23.29936786 
Au      23.00030383      19.30590325      24.47751828 
Au      27.79901551      20.95808440      23.80107885 
Au      19.59702571      25.93099348      21.92833795 
Au      24.93156840      31.05462434      14.79761905 
Au      25.20013174      19.32700459      27.94549205 
Au      19.03982525      26.16290775      24.83910752 
Au      20.53326344      28.22616110      26.47391037 
Au      21.41460403      26.12099025      28.28293620 
Au      29.15930876      23.09948758      25.51391809 
Au      19.16321072      21.77145837      22.18054387 
Au      24.48242933      17.02014147      23.42672872 
Au      22.94066325      28.18953166      29.84602510 
Au      20.65367058      19.50645771      21.12887297 
Au      20.35535480      22.27752861      31.30447284 
Ag      24.87579586      30.16012209      28.71703554 
Au      18.02413561      28.29793870      22.98024004 
Au      28.12680086      19.01985305      28.53862481 
Au      18.94221147      20.15229324      29.84085815 
Au      29.80669040      22.79027488      22.58972903 
Au      19.58316469      21.61465421      19.20991148 
Au      18.22534008      17.77685701      25.32044362 
Au      15.71750029      22.11793193      24.60351053 
Au      16.67410242      26.11992819      21.42621237 
Au      26.60117545      24.89720103      17.23701048 
Au      28.09972037      29.60139648      26.27048358 
Au      17.23217529      19.86665849      23.59840051 
Au      18.80661545      17.65030259      22.39908980 
Au      30.64911784      20.71628185      24.45571084 
Au      22.14164465      27.44290146      17.59781312 
Au      21.11085125      19.33951658      18.29005570 
Au      22.12217160      17.17504215      19.89212362 
Au      21.89310912      15.40844982      27.62950622 
Ag      19.00985997      24.54634055      32.46802052 
Au      26.44639995      25.68296558      32.41486560 
Au      14.80201070      24.22903552      22.74354196 
Au      29.62332359      20.73421165      30.19710708 
Au      23.78736329      32.09548654      26.75946852 
Ag      22.45927683      15.10305818      24.73729066 
Au      24.94211359      16.92157082      20.45549402 
Au      28.57109954      27.85885138      31.07420470 
Au      19.24986574      17.47447457      19.50089916 
Au      27.73486988      31.26640061      21.46848814 
Ag      15.27293963      24.02964017      19.90130460 
Ag      21.41030760      17.22346947      31.49448086 
Au      21.15176965      32.17036777      23.06787088 
Au      14.17462272      24.45627279      25.45848365 
Au      22.37173921      23.04949701      14.82966632 
Au      30.72624621      26.80101866      19.58492391 
Ag      18.26689959      19.47200235      17.73581994 
Au      22.76410262      18.32658912      16.21393413 
Au      15.56370376      17.37621965      26.17558113 
Au      30.36761246      30.01916249      27.98554600 
Au      29.71414423      18.33770380      19.81584150 
Au      13.63158311      21.58691826      22.65411157 
Au      30.41287072      17.56415539      31.04268942 
Au      26.74544266      15.95004884      18.50494528 
Au      20.75353710      32.31488034      26.30906322 
Au      19.27435570      27.89214851      17.14587898 
Au      25.74072529      17.98386237      16.64124865 
Ag      14.51175968      19.46807112      24.45925520 
Au      19.08267782      33.47720764      20.76696295 
Au      24.06264871      22.04015089      12.26737061 
Au      34.69661086      22.49050723      27.44775499 
Au      29.26151561      32.79948204      29.27393803 
Au      19.25108253      31.25577604      16.50106325 
Au      23.55799723      15.05684378      18.79966995 
Au      13.81185398      26.96876376      19.31214878 
Au      20.96796534      26.73799848      34.43249964 
Au      19.59011102      28.55683899      32.32523258 
S      20.69115019      15.88682140      33.48530804 
S      28.60784069      32.59294189      19.58940234 
S      23.96453819      22.86660866      35.76587074 
S      24.30854260      18.11352918      35.54070798 
S      12.40495210      18.09744246      24.27289827 
S      32.18844238      17.46329657      29.49683343 
S      31.48944349      14.69507718      21.59598819 
S      29.84477360      19.35712604      16.06601262 
S      28.18232935      22.06024495      33.31424611 
S      23.06562154      27.83620702      34.74818193 
S      13.47627665      30.06074713      24.99908242 
S      16.32689082      18.00029233      17.19355249 
S      32.70103147      23.07833074      19.77394883 
S      26.73587655      31.13361264      33.60889325 
S      22.81106663      32.48917028      32.66811756 
S      17.17658820      31.50272710      17.59778156 
S      11.33202712      22.29488167      23.02410362 
S      24.95477372      13.24190427      26.84680577 
S      33.96032467      29.00230191      27.42234369 
S      28.41745335      26.75973624      33.33368908 
S      23.94975628      24.28278197      11.53535246 
S      27.46533831      25.86647675      12.87282672 
S      19.11168801      33.40650320      30.29024711 
S      28.74670227      17.57606483      32.71754337 
S      21.26890097      34.02714803      24.64953058 
S      31.14172068      32.30885457      27.92655699 
S      28.92730425      29.26035503      16.23140295 
S      33.51347735      17.26987862      23.79478884 
S      34.87461234      21.77721418      23.47786786 
S      19.17271391      13.77640773      25.68508579 
S      20.88176809      33.68917688      19.24728234 
S      12.61402384      19.38994484      19.74846143 
S      18.73201335      30.36589077      33.68257268 
S      31.89647108      31.02365777      23.30033071 
S      35.31010334      27.14544450      23.30736075 
S      31.08014933      30.69371589      31.85320441 
S      22.99223610      13.13755655      23.30161521 
S      32.04747006      19.10596660      19.76074903 
S      28.70178850      14.73115749      17.75715083 
S      15.47927555      30.45853078      29.24649090 
S      31.57597563      21.92607618      31.05357404 
S      20.39610537      26.36502536      13.79381107 
S      17.16991001      26.93817952      16.35581715 
S      27.27220429      12.86847858      21.95943809 
S      16.83375745      33.61292947      26.19993651 
S      15.22102338      21.63466967      31.26606926 
S      21.08085436      16.66681549      15.67746035 
S      24.65348275      29.13783141      13.46593202 
S      20.20759524      22.02497149      14.12776047 
S      21.14620921      31.37321145      15.10758923 
S      23.64117575      34.07672297      28.20018038 
S      13.62460829      17.22049861      29.38542528 
S      24.43408617      33.59505008      22.09717595 
S      27.89777148      21.33331585      12.27113895 
S      16.44915867      23.04718118      16.79433474 
S      26.02088010      16.52177928      14.66820646 
S      16.96219906      14.09141855      30.15646262 
S      28.62422452      13.94823930      29.76660339 
S      27.61644202      33.74448615      30.67604630 
S      32.74419511      28.18105890      19.60859371 
S      24.92528136      14.66564003      32.55850695 
S      14.36593965      29.26635439      19.28689175 
S      13.38162733      25.81593220      27.32129585 
S      34.55329423      20.15876013      27.78736724 
S      30.23098889      23.61053877      15.95733349 
S      18.82453980      25.72842778      34.66356386 
S      35.31044049      24.75013497      27.18919400 
S      19.90831205      20.67311351      34.72813384 
S      32.09667788      26.16997013      31.06450937 
S      23.95455891      19.70122904      12.57203439 
S      17.23520127      33.47872061      22.23401584 
S      15.69363994      26.10160986      30.70686933 
S      11.85508511      26.96283463      23.02313316 
S      24.38644537      13.15384729      17.53352928 
S      12.99550901      24.75715084      19.18263084 
S      21.52474756      13.52056218      29.15450852 
S      16.85654105      17.49604586      32.79622317 
S      15.84885377      15.76659727      21.33216813 
S      14.74905429      15.05697997      26.10636391 
S      25.29849714      32.91161449      16.20281533 
S      29.58942737      13.56237876      26.01476602 
S      20.11222527      13.80026845      19.31979970 
S      27.20549541      33.69843826      25.69648641 
S      12.91020127      21.49688857      27.55722583 
C      21.20806889      14.14638175      33.21910635 
C      30.38201984      32.89851605      19.94713728 
C      23.34517583      24.22692235      36.83379744 
C      23.62656058      18.82071034      37.09312603 
C      11.03013855      19.05039028      25.02663984 
C      32.59513040      15.68310794      29.31233886 
C      31.31752278      12.86816602      21.71026025 
C      31.57154062      19.97066422      15.98085591 
C      27.98959696      23.11118612      34.79995038 
C      22.69599428      29.34374403      35.72251398 
C      13.28395767      31.77646726      24.37688186 
C      16.94590722      16.62977298      16.13796523 
C      33.21648431      24.04740481      18.30684278 
C      26.41514700      32.90369374      33.93857550 
C      22.41911985      34.14123791      31.97975612 
C      16.94482314      33.32432696      17.57666632 
C      10.48491465      22.13000077      21.40340341 
C      26.35964011      12.16248031      27.30766199 
C      34.87068111      28.17142921      28.77873883 
C      27.78345338      27.93125224      34.58784513 
C      23.23763492      24.12801049       9.84571368 
C      26.70502730      26.63369601      11.39615882 
C      17.66809352      33.23145537      31.41089406 
C      29.46693161      18.52354198      34.11421644 
C      19.79587633      35.09292351      24.43486208 
C      32.62978526      32.43340274      28.99007798 
C      28.68119971      30.22976009      14.69613885 
C      34.43772978      16.58048515      25.22124824 
C      35.63607678      21.88416997      21.81222952 
C      17.60610070      12.95467138      25.20828276 
C      21.80770076      35.17676155      19.79185728 
C      12.51314101      17.84881029      18.75787367 
C      18.81853297      29.83069659      35.43568726 
C      33.59940653      31.38970702      23.87001074 
C      35.82378095      28.54297047      22.23523587 
C      31.63626824      30.88734048      33.59579741 
C      21.47273215      12.17338848      22.94551934 
C      33.17877520      17.72682257      20.16462159 
C      28.29920459      12.94891794      17.94721014 
C      14.24053797      29.66878223      30.34715721 
C      32.98493228      20.76198584      31.16035971 
C      18.89796017      25.52317779      13.15338342 
C      15.97044166      28.29054505      16.07026328 
C      26.19175751      11.41937890      22.26674606 
C      15.16476314      33.99688044      26.86108456 
C      15.11608837      20.74263926      32.86480287 
C      21.84173418      15.48614778      14.50043200 
C      23.06760225      29.33012240      12.56837320 
C      20.54146064      20.55044082      13.09718868 
C      21.62319689      33.14030101      15.24507375 
C      24.04941938      35.44690892      27.05139105 
C      12.11190189      17.17575275      30.43302076 
C      25.99644801      34.54140924      22.19232641 
C      29.36540963      21.91298079      11.33066104 
C      16.45197788      21.85656478      15.40237617 
C      27.81612764      16.24739642      14.42624252 
C      16.48114699      12.33445390      30.41230096 
C      29.85063750      13.69238733      31.11139008 
C      28.07441519      35.52706751      30.69716826 
C      32.56439750      29.34441294      18.19940308 
C      25.84354893      14.83971763      34.13907425 
C      12.96255693      30.11964661      20.10550042 
C      12.14488352      27.00880555      26.69515841 
C      36.07688727      19.55044643      26.96221811 
C      30.41716682      24.84220110      14.61515646 
C      19.01321971      24.49709733      36.01276869 
C      36.61610336      24.65521515      25.90230929 
C      19.89610343      19.30492385      35.94621642 
C      32.08047307      25.45559026      32.75437262 
C      25.27484426      18.90177311      11.58573370 
C      15.75201332      33.65936686      21.16919248 
C      15.32787220      25.29141007      32.30660623 
C      10.76203088      27.31702143      21.59102555 
C      22.94988581      12.37652531      16.69729982 
C      12.85531625      24.39613947      17.38764434 
C      21.52051713      12.03236881      28.08438181 
C      16.83815392      15.80324987      33.50338598 
C      14.07385012      15.30310844      21.26927565 
C      12.96915162      15.01646398      26.53420871 
C      26.98008409      33.55399754      15.84657645 
C      31.33658259      13.23159495      25.56118662 
C      18.34750167      13.40518787      19.00016814 
C      28.92853436      34.31611402      25.79326853 
C      12.18252049      22.35394082      29.00700822 
H      22.23280908      14.08443120      32.83707285 
H      21.13136531      13.61015935      34.17165505 
H      20.51801199      13.71004941      32.48520522 
H      30.85494782      33.29275284      19.04046165 
H      30.43339600      33.64591427      20.74785464 
H      30.88939692      31.98342899      20.27381223 
H      24.21746223      24.80711182      37.15808973 
H      22.65897116      24.88560228      36.28875170 
H      22.84453435      23.79614705      37.70776630 
H      23.34603284      18.00742676      37.77097395 
H      24.42528599      19.42138053      37.54488072 
H      22.76638198      19.46954787      36.89779289 
H      11.15305218      18.98700830      26.11521190 
H      11.05231409      20.10130784      24.71868938 
H      10.08106789      18.59168084      24.72769244 
H      33.36285832      15.60464581      28.53313408 
H      32.99544343      15.31382210      30.26328896 
H      31.71337305      15.10257304      29.02086330 
H      30.26728885      12.55909478      21.70614750 
H      31.84049329      12.43035970      20.85186046 
H      31.79289131      12.52787405      22.63739683 
H      31.59460875      21.06197492      15.88711331 
H      32.07131072      19.66442664      16.90873289 
H      32.05718703      19.50352298      15.11649801 
H      27.63039612      22.48327899      35.62321297 
H      28.97321366      23.53088949      35.04292282 
H      27.28088139      23.92873709      34.61455972 
H      22.00684899      30.00986986      35.18509205 
H      22.26719140      29.04513111      36.68606861 
H      23.64734543      29.86500528      35.88493668 
H      12.58963986      32.31415189      25.03250625 
H      14.25035148      32.29036446      24.34040815 
H      12.86166078      31.71060373      23.36691136 
H      17.08476547      17.03175533      15.12716765 
H      17.90282588      16.24061515      16.50445139 
H      16.19679961      15.83070849      16.11548764 
H      32.51319426      24.86557603      18.10740044 
H      34.21269687      24.45677923      18.51294700 
H      33.25667177      23.37955562      17.43882944 
H      26.82424690      33.53443413      33.14284111 
H      25.33199823      33.05607629      34.01767974 
H      26.89876846      33.14820760      34.89253830 
H      21.57686321      34.09847192      31.28133878 
H      22.17906204      34.80756788      32.81649201 
H      23.31607321      34.49783205      31.45765768 
H      16.00279283      33.54605620      18.09161399 
H      17.77219404      33.83668089      18.08030063 
H      16.87549129      33.64970769      16.53258855 
H      11.05339084      22.62436906      20.60888082 
H      10.39374728      21.05902825      21.18414307 
H       9.49115400      22.58354063      21.49295125 
H      27.25904543      12.73544348      27.55007508 
H      26.05570650      11.57635979      28.18320048 
H      26.56445482      11.49692571      26.46027538 
H      35.86886015      28.62017539      28.84121899 
H      34.31444027      28.35728038      29.70639404 
H      34.95440251      27.09355210      28.60435888 
H      27.63278720      27.37370103      35.52023715 
H      28.52807625      28.72065633      34.74476087 
H      26.83639860      28.38144718      34.27357420 
H      23.06608114      25.13981893       9.46034152 
H      23.97066813      23.60958774       9.21731922 
H      22.29755653      23.56962754       9.85932837 
H      25.85431928      26.04385460      11.03968825 
H      26.37421452      27.64824639      11.64867586 
H      27.48059621      26.67539492      10.62114174 
H      18.05138765      33.05693324      32.42353886 
H      17.10036838      34.16834626      31.37715659 
H      17.03077267      32.39549414      31.10473909 
H      30.30516656      17.95388167      34.53045991 
H      29.79696233      19.51671440      33.79298118 
H      28.67748158      18.63051029      34.86826298 
H      18.86944307      34.51296042      24.40239337 
H      19.76004056      35.78919779      25.28135946 
H      19.91469046      35.64767686      23.49614529 
H      32.44402729      32.01417941      29.98473456 
H      33.43100765      31.87511674      28.49034038 
H      32.89851738      33.49344914      29.06677048 
H      29.43829108      31.02116456      14.65223269 
H      28.81724403      29.53889377      13.85508049 
H      27.67166365      30.66103970      14.64957934 
H      34.11311657      15.54001953      25.34371255 
H      35.50966041      16.60810566      24.99479803 
H      34.22602542      17.14426432      26.13553896 
H      34.93019598      21.58035065      21.03243508 
H      35.91961772      22.93194305      21.65472625 
H      36.52921687      21.24978159      21.79497370 
H      17.16603519      12.50201743      26.10534674 
H      16.89260247      13.66287459      24.77628910 
H      17.84811045      12.17663042      24.47425373 
H      22.70905428      35.24079333      19.17013340 
H      21.17955870      36.05977967      19.63007740 
H      22.10034752      35.09941465      20.84387960 
H      12.73968240      18.11615864      17.71897356 
H      13.23931354      17.10402127      19.09938026 
H      11.49330783      17.45495096      18.83264707 
H      18.74129175      30.71813874      36.07382625 
H      17.96625917      29.16385118      35.61219340 
H      19.74482709      29.28650288      35.64491519 
H      34.11162067      30.48190616      24.21753162 
H      34.15500460      31.85067180      23.04515093 
H      33.51674057      32.09940874      24.70208234 
H      35.92759644      28.14920318      21.21719502 
H      35.07660911      29.34343564      22.23333251 
H      36.78882649      28.91915075      22.59304787 
H      31.13932928      30.17116539      34.25675662 
H      32.72135474      30.74117423      33.64190135 
H      31.38859513      31.90780850      33.91104714 
H      21.29105781      11.49794691      23.78980885 
H      20.60837108      12.83712169      22.81681623 
H      21.62785804      11.59147351      22.03004532 
H      33.26549766      17.09172512      19.27473679 
H      34.15729168      18.15323710      20.41743194 
H      32.81591055      17.12869880      21.00483428 
H      27.51408886      12.69333472      17.22517669 
H      29.20807497      12.37582586      17.72884212 
H      27.95282644      12.72519763      18.96185070 
H      13.32923093      30.27699972      30.34286965 
H      14.02132520      28.64473288      30.02840028 
H      14.67106879      29.64862444      31.35567002 
H      32.81245915      20.10164423      32.01904890 
H      33.09252973      20.16147785      30.25279536 
H      33.89588125      21.35184608      31.31767118 
H      18.99984848      24.43413115      13.21633177 
H      18.05492338      25.85758553      13.77138504 
H      18.75076715      25.83239348      12.11226728 
H      15.97570882      29.02450338      16.88082066 
H      16.23958533      28.78349300      15.12841082 
H      14.97239860      27.84285247      15.98850074 
H      26.82097862      10.56199459      22.52932189 
H      25.46514060      11.62922855      23.05916156 
H      25.65493788      11.21781836      21.33165744 
H      14.49205820      34.13082461      26.00582401 
H      14.79407344      33.18736901      27.49997223 
H      15.22447423      34.93217937      27.42900620 
H      14.80520802      21.46713378      33.62752352 
H      14.36760038      19.94533420      32.78500645 
H      16.07606877      20.30070574      33.14832946 
H      22.03250172      16.03174106      13.56841452 
H      22.78994845      15.08770931      14.88792948 
H      21.13268861      14.67149324      14.31299957 
H      22.28911768      29.75251699      13.21225013 
H      23.24311221      29.98992454      11.71065289 
H      22.76507448      28.33318143      12.22258758 
H      19.58239013      20.05799158      12.89632328 
H      20.99952599      20.87712935      12.15579448 
H      21.21374343      19.85285959      13.60743679 
H      22.61341216      33.25430506      14.78740885 
H      20.88262120      33.73353370      14.69658252 
H      21.65769049      33.45812720      16.29228777 
H      24.09164362      36.37837183      27.62724373 
H      25.00641042      35.26377260      26.54800809 
H      23.24136161      35.49520822      26.31024432 
H      12.14120208      16.25165270      31.02178459 
H      12.06315127      18.04005110      31.10130914 
H      11.23846913      17.16661435      29.77077852 
H      26.12492168      35.08086582      21.24674576 
H      25.91374322      35.24642059      23.02776010 
H      26.85314569      33.87553792      22.35801762 
H      29.98094357      22.59415252      11.92563795 
H      29.96166468      21.04539583      11.02658776 
H      28.99918270      22.43828446      10.44072448 
H      15.51968461      21.28166379      15.43548013 
H      16.51024897      22.43303904      14.47131899 
H      17.31318531      21.17968144      15.46775634 
H      28.30099252      15.92904943      15.35584462 
H      27.93713211      15.47562968      13.65710650 
H      28.24974841      17.19455007      14.08075339 
H      15.39946515      12.30550106      30.58655610 
H      16.73431762      11.72025216      29.54379003 
H      17.01021217      11.96418586      31.29794796 
H      30.80430516      13.42723300      30.63917622 
H      29.98014419      14.59830244      31.71403764 
H      29.51807364      12.86212008      31.74377753 
H      28.13476747      35.93414594      29.68390483 
H      27.30954011      36.06389362      31.27039275 
H      29.04612526      35.61907653      31.19545073 
H      32.70785906      28.76936359      17.27692901 
H      31.57173842      29.80861745      18.18603120 
H      33.34264733      30.11125661      18.28508408 
H      26.63556333      15.59070313      34.05391341 
H      25.12580296      15.14600602      34.91023185 
H      26.27517758      13.86348753      34.38769754 
H      12.78689559      29.71369415      21.10699192 
H      13.22393637      31.18234377      20.17826583 
H      12.06697794      30.00221842      19.48478333 
H      12.46366494      27.47509234      25.75916430 
H      11.20438509      26.46976846      26.52990103 
H      12.00560802      27.78268529      27.45998009 
H      36.10038281      19.84155158      25.90615219 
H      36.94283229      19.96518770      27.49037892 
H      36.08693943      18.45742403      27.04565551 
H      29.63805061      25.60941543      14.66133078 
H      31.40337675      25.30956934      14.72263717 
H      30.35722531      24.32373475      13.65098164 
H      19.82355436      23.78964728      35.80226507 
H      19.20703638      25.02514880      36.95285983 
H      18.06750815      23.94698586      36.08818502 
H      36.82738657      25.67802249      25.56711173 
H      37.50990785      24.21490944      26.35889944 
H      36.28881747      24.04580915      25.05364730 
H      19.96418420      19.72971917      36.95416047 
H      18.94106440      18.77860456      35.82805351 
H      20.72137356      18.60198684      35.76837294 
H      32.16305466      24.36674637      32.64537847 
H      32.94572273      25.84797362      33.30077796 
H      31.15280699      25.70890104      33.27926460 
H      26.21207987      19.46599201      11.62426668 
H      25.41933278      17.89763270      12.00308629 
H      24.91858486      18.83168219      10.55113813 
H      14.87287217      33.58396761      21.82058693 
H      15.77495144      34.64642237      20.69359606 
H      15.71699362      32.87100252      20.41041563 
H      15.31035244      26.06306176      33.08477956 
H      14.34633900      24.81019455      32.22189725 
H      16.08189592      24.53276242      32.55214420 
H      11.12291543      26.82316591      20.68195681 
H       9.75309517      26.96809919      21.83857469 
H      10.74737077      28.40318502      21.44354616 
H      22.43440907      11.76120288      17.44420517 
H      22.25386833      13.12884564      16.31252180 
H      23.32218554      11.74565828      15.88223619 
H      12.53595603      23.35059393      17.29715864 
H      12.09908053      25.05203396      16.94327278 
H      13.81747945      24.52185447      16.88012696 
H      22.53834699      11.91890235      27.69023725 
H      21.25241935      11.16661100      28.70033801 
H      20.81293557      12.14924740      27.25575953 
H      16.82870659      15.04675712      32.71201354 
H      17.74813248      15.69483699      34.10604930 
H      15.95002219      15.69858484      34.13662679 
H      13.42341036      16.18599500      21.33304716 
H      13.87524137      14.74947001      20.34480440 
H      13.87977016      14.65398032      22.13205591 
H      12.66436818      13.96822164      26.63279359 
H      12.78405647      15.55669465      27.46842757 
H      12.42652344      15.49560271      25.70993177 
H      27.73115734      32.75861925      15.88848373 
H      26.97158853      34.02291184      14.85622087 
H      27.20872126      34.30215579      16.61482588 
H      31.65433233      13.86390080      24.72497059 
H      31.94879723      13.44895968      26.44478301 
H      31.43509136      12.17209512      25.29812905 
H      18.27530872      12.89906146      18.03091618 
H      18.01282850      12.73085236      19.79752719 
H      17.72759491      14.30888903      19.00697330 
H      29.06567913      35.04334364      24.98345137 
H      29.08349351      34.80804297      26.76110164 
H      29.65713314      33.50700886      25.68362286 
H      12.10554148      23.41684861      28.74501373 
H      11.18601607      21.93609189      29.18942563 
H      12.81867317      22.23227957      29.89208213 
