699
Properties=species:S:1:pos:R:3 i=72 optimized=T E=-11603.7762050177 pbc="F F F" jobid=279_84-Ag-79_9-000009-PBE
Au      33.09615754      25.42309404      26.03058756 
Ag      31.92492749      29.28507083      21.69811261 
Ag      34.33688311      28.17497549      25.54650186 
Ag      29.76331521      15.11064080      19.69182961 
Ag      33.80979554      19.60324089      23.71039364 
Au      27.34061150      23.11185459      13.15980977 
Ag      18.17941491      33.12810701      28.18035866 
Ag      28.38467580      30.64001690      18.16859824 
Ag      24.93164712      21.28000541      23.24566873 
Ag      26.28090029      23.28490279      24.93227773 
Ag      28.16090970      25.13457822      23.68658728 
Au      23.82925317      21.61209463      28.99621109 
Au      23.32259007      27.88156145      26.99453417 
Ag      26.87366342      23.11281076      22.03876499 
Ag      22.41233690      19.55742468      27.38452858 
Au      27.22046433      21.16949335      26.71151790 
Ag      22.03184018      21.52778324      22.70335947 
Ag      21.01890758      23.59760272      20.86927603 
Ag      27.63438986      25.32563385      26.60343702 
Au      19.99591177      24.04776499      26.70466529 
Ag      25.45012368      21.08700668      20.36469984 
Ag      24.30034383      25.74279557      28.81006947 
Ag      23.83909311      27.70309050      24.10912386 
Ag      26.16869058      27.65609721      27.64108301 
Au      20.95636463      21.86847194      28.41397797 
Ag      22.89881717      23.73793662      27.19240417 
Au      21.50477872      21.68364257      25.57226127 
Ag      19.54782858      19.83384051      26.88190025 
Ag      25.82907554      19.15762908      25.05397703 
Ag      25.27941263      23.54128384      30.72377406 
Ag      22.95304260      25.42003098      19.59384640 
Ag      20.95579234      27.93287190      23.54374089 
Ag      26.67165077      27.40595933      24.75168555 
Ag      22.57148885      21.35291466      19.83524066 
Ag      21.94089894      25.86675360      25.37268124 
Ag      27.14414010      25.45418634      29.46768796 
Ag      20.12460786      19.69205065      24.01945653 
Au      25.79728932      25.14589249      20.24349323 
Ag      23.50322103      19.26740411      21.65262818 
Ag      22.39185373      23.90147853      30.04242282 
Ag      21.08283669      17.50205910      25.82034861 
Ag      21.49112085      27.64595097      20.65784770 
Ag      24.35013142      27.44943054      21.28518572 
Au      24.45810363      23.17089816      18.55319755 
Ag      28.60040145      23.16114951      28.44624505 
Ag      18.62588407      21.98569107      25.11388807 
Ag      26.72380145      21.24857227      29.60384901 
Ag      22.39207753      30.05322373      25.15587353 
Ag      27.21004533      27.17472624      21.87193614 
Ag      21.86072967      19.70970106      30.27212268 
Ag      18.50621443      26.41122860      27.71936060 
Ag      23.21151223      21.72617070      31.89554086 
Ag      21.57455030      23.42981739      17.95424315 
Ag      17.08363274      24.31845134      26.18033142 
Ag      27.38707469      22.89061530      19.12600289 
Ag      23.92412091      17.22618424      26.29629939 
Ag      23.32061331      17.45466489      29.18991826 
Au      25.23530648      29.77368059      25.77720311 
Ag      21.63348194      17.32753910      22.91079524 
Ag      28.78222659      18.84645821      25.64705110 
Au      22.80789304      29.75873513      22.25606971 
Ag      25.30625386      25.37010210      23.10790618 
Ag      20.06251193      25.67676144      18.99486203 
Ag      29.55598473      27.14327854      25.40319887 
Au      19.47014374      24.32188720      29.56106004 
Ag      18.04392616      22.20479052      27.98973029 
Ag      20.04651190      28.38530579      29.26848793 
Ag      23.84441621      25.76523767      31.67081036 
Ag      21.10108523      26.29209783      31.13557730 
Ag      26.37537591      19.06795216      22.16785605 
Ag      24.69006459      19.50425411      30.79800088 
Ag      20.42971763      17.69699023      28.69806952 
Au      28.83425268      24.88142726      20.77956344 
Ag      19.51251258      30.23388486      24.59214708 
Ag      25.75477840      29.54551650      22.84992621 
Ag      24.88896573      27.22154548      18.29505247 
Ag      28.39576359      20.83108915      20.92782936 
Ag      29.04882508      27.40863648      28.27821872 
Ag      30.04462521      20.90261807      27.27206797 
Ag      18.13199833      23.93138928      20.32832868 
Ag      17.72242518      19.68870306      20.63715354 
Ag      25.60051751      27.73737343      30.52745853 
Ag      28.12783799      23.30501315      31.27961421 
Ag      21.89298930      30.23416565      28.03011433 
Ag      21.88592164      24.06765004      32.91940701 
Ag      18.63532979      27.95238741      20.15548689 
Au      16.34373901      22.02826705      21.64787670 
Ag      30.48294229      25.04073472      27.16339059 
Ag      23.41145252      23.54633745      24.32303612 
Ag      19.98392796      30.03434037      21.68189984 
Ag      16.68930229      20.10926789      26.41412355 
Au      26.78094777      17.08229172      26.85377541 
Ag      29.95732729      25.21122838      29.99334802 
Ag      17.59095352      28.44919428      25.90663151 
Ag      16.17236616      26.32405756      24.31126382 
Ag      28.53158150      29.17151921      23.43574505 
Au      27.76541102      26.92362077      19.03227235 
Ag      24.07740223      19.06010156      18.65318465 
Au      27.35633446      16.90441657      23.94850043 
Ag      26.90740616      18.85720018      19.23928679 
Ag      26.02712085      21.32311829      32.57487357 
Au      12.55050442      18.78428087      21.89272504 
Au      23.09030455      21.18353699      16.93006574 
Au      26.27252896      29.20741678      19.90644748 
Ag      20.06375524      19.59631008      32.46744469 
Ag      26.11658692      17.21790089      29.72940324 
Ag      29.28554865      18.74833697      22.74371586 
Ag      27.56253052      29.68246492      29.30714653 
Ag      15.28778616      22.47141151      27.46360509 
Ag      25.98985744      20.93557846      17.41133280 
Ag      24.63051903      23.71431020      33.52269949 
Ag      23.52478726      25.21924446      16.58014497 
Ag      17.60019193      18.02247196      28.19020415 
Ag      19.06676347      30.42720959      27.44137590 
Ag      23.42906304      29.48556058      19.40830637 
Ag      22.42815812      25.62447053      22.48295378 
Ag      16.21152107      20.23403841      29.37250984 
Au      27.51121943      19.10315545      31.32811673 
Ag      29.09717615      28.96929685      20.60079214 
Au      16.56178770      24.53290922      28.99465428 
Ag      31.91124204      22.80404304      26.05473383 
Ag      16.70062241      21.74571652      18.77484230 
Ag      24.86134604      31.55088890      20.83656945 
Ag      21.91282029      31.78316686      20.38168346 
Ag      20.65240973      25.45567095      16.15047147 
Au      24.38292277      31.83469832      23.94835246 
Au      20.60897589      29.69491338      18.83651408 
Ag      23.19010280      15.13447638      21.59746976 
Ag      30.27912345      22.62944610      19.66751888 
Ag      25.03114695      22.96697494      15.55803495 
Au      18.77091223      23.64299319      17.38759044 
Ag      28.80609515      20.70771675      18.06292175 
Au      17.63243503      22.50953906      30.97054857 
Ag      17.19273710      28.72147984      28.79340121 
Au      27.87739118      16.89301625      21.05716332 
Ag      15.59365494      26.81157634      27.12567407 
Ag      18.93601268      15.75875010      27.05028084 
Au      19.67450365      15.53431985      24.04062975 
Ag      18.27277122      26.76646926      30.74397245 
Ag      20.21897913      15.42571534      21.27039264 
Ag      27.26107620      31.51742099      24.40028180 
Au      24.97286558      15.22021007      28.16881786 
Ag      23.93305827      23.33965067      21.44427623 
Ag      20.19553271      21.24159819      16.37609241 
Ag      27.86267522      22.80436190      16.08027100 
Ag      31.32436309      20.44350089      21.66148920 
Ag      26.81754570      31.78290075      27.44632513 
Ag      25.77533713      14.90356850      25.16514007 
Ag      28.68615584      16.18781337      28.79008221 
Ag      26.07288851      14.94745755      22.19837690 
Ag      32.56672990      22.61712574      23.26868806 
Ag      25.41107510      30.35756291      31.50648398 
Ag      22.73194127      30.79834283      30.76017146 
Ag      24.19340832      16.94916160      31.90092084 
Ag      31.28893689      17.92114771      24.70826757 
Au      17.06824974      26.08914353      18.66080233 
Au      31.48770351      22.83596662      28.82463700 
Ag      29.33110487      16.05632838      25.89522375 
Ag      15.55913365      29.17105300      23.98577674 
Ag      16.04312180      28.95063152      21.10250141 
Ag      17.01701693      31.23087901      25.54535253 
Ag      29.29228313      24.84183542      17.88886034 
Ag      30.70348026      18.06015858      27.57768439 
Ag      18.57440849      17.56257779      30.91453416 
Ag      23.91474745      19.53841211      33.50089853 
Au      18.04281947      30.70576502      19.74266942 
Ag      17.45642013      30.98876346      22.63863090 
Ag      14.12307055      27.05497462      22.46567921 
Ag      32.61890575      20.00643637      26.41065030 
Ag      24.80213724      25.57746093      25.97273849 
Au      32.82321511      26.74119444      23.18862279 
Ag      24.88378266      20.13357169      14.92856054 
Ag      19.98786749      31.12826007      30.03775923 
Ag      31.74080323      27.71573581      27.16348312 
Au      23.26552534      28.38745778      32.48819689 
Ag      29.81031572      15.88125736      22.98158299 
Au      22.46883089      16.95963462      34.41635547 
Ag      13.99852412      19.66386865      27.52917042 
Ag      24.04835028      27.92263343      15.62805657 
Au      15.26380738      17.67713943      30.55246275 
Au      25.62870820      25.69941954      14.75700065 
Ag      28.48623658      30.40494423      32.17789541 
Ag      22.58821723      30.18137993      16.78463084 
Ag      22.09140388      21.66230848      34.78585715 
Ag      31.12097721      28.26189207      30.38964841 
Ag      19.68252223      15.03413650      29.76254389 
Au      22.27045017      25.31280386      13.07110925 
Ag      16.21527442      15.12283393      28.06434429 
Au      25.43855253      33.57969918      29.30074379 
Ag      26.62722354      14.52363966      30.74428133 
Au      28.51450824      13.36844145      24.01272225 
Au      16.32878473      17.12979930      19.38414641 
Ag      16.12830607      17.38025538      23.26598409 
Ag      20.85776221      15.63789785      17.73349349 
Ag      11.96917067      24.69764883      23.11781756 
Ag      14.77710546      29.96623331      27.02986369 
Ag      24.36142378      21.40838526      26.12134208 
Au      14.96462024      20.04246004      20.18102998 
Au      25.35373406      31.07738329      18.05476024 
Ag      27.80776670      19.99237416      15.27964113 
Ag      30.10727648      26.97117534      22.49625183 
Ag      30.98921268      24.88413064      24.26145004 
Ag      31.73098365      24.79519275      21.45878533 
Au      20.51159925      23.81906791      23.77288242 
Ag      25.27167232      15.01721834      16.12217394 
Au      30.67437078      29.72996419      25.18067118 
Ag      25.75270111      23.43307659      27.82856170 
Ag      26.97580072      27.66326507      16.38240448 
Ag      20.83565962      31.50081800      33.04956815 
Ag      17.65250812      24.02279160      23.27303781 
Ag      22.97990763      19.37937482      24.50110063 
Ag      27.78442327      21.00341879      23.82790801 
Ag      19.55687595      25.88760383      21.94353377 
Ag      24.89919238      30.87699908      14.97693219 
Ag      25.23766488      19.30555654      27.91275351 
Au      19.03150063      26.11112623      24.84290679 
Ag      20.50177122      28.15719221      26.40334836 
Ag      21.43044464      26.03665519      28.25713093 
Ag      29.10357921      23.05436147      25.49463432 
Ag      19.17061969      21.77315328      22.16514626 
Ag      24.52737311      17.10121302      23.43502903 
Ag      22.87585808      28.14703137      29.79503803 
Au      20.65167324      19.52106820      21.10692746 
Au      20.44921339      22.15262011      31.26925980 
Ag      24.77660368      30.05279747      28.70678010 
Ag      18.03555882      28.22431553      23.01865785 
Ag      28.15774500      19.00339209      28.52204404 
Ag      19.04057474      20.10744889      29.76713965 
Ag      29.75537758      22.78742110      22.62425892 
Ag      19.63273231      21.58668501      19.23170426 
Ag      18.23037013      17.84577654      25.23958211 
Ag      15.76718547      22.20581741      24.57145792 
Ag      16.62603377      26.15544466      21.44938566 
Ag      26.40000762      24.95866571      17.35273118 
Ag      28.06670708      29.45459809      26.34856974 
Ag      17.22534124      19.96801658      23.52176406 
Ag      18.82694547      17.69952166      22.41234481 
Ag      30.68594971      20.73203392      24.42082428 
Au      22.07616915      27.47947897      17.71635148 
Ag      21.17558262      19.35659293      18.25989038 
Ag      22.16281329      17.27627382      19.97797600 
Ag      21.99202901      15.43449234      27.56515051 
Au      19.13642371      24.48663056      32.39446444 
Ag      26.55835450      25.53096683      32.37961130 
Ag      14.82348249      24.23621696      22.77831226 
Ag      29.60458558      20.80069301      30.21671593 
Ag      23.82844376      32.03112350      26.78056729 
Au      22.58570801      15.25427665      24.73862939 
Ag      25.00181669      17.07356755      20.52207956 
Au      28.37923880      27.61828251      31.10278706 
Ag      19.29510420      17.50837379      19.53522373 
Ag      27.72138627      31.22316606      21.57540909 
Ag      15.27485428      24.08649626      19.91389557 
Ag      21.35712060      17.11986399      31.38715875 
Au      21.31917139      32.03381116      23.24106296 
Ag      14.18417959      24.49301133      25.54037225 
Ag      22.18297830      23.09432783      14.96767173 
Ag      30.59788891      26.80724398      19.57575286 
Ag      18.35392493      19.52068937      17.74957548 
Ag      22.81366713      18.49436973      16.08481348 
Ag      15.58137696      17.44116092      26.17940115 
Ag      30.28571587      30.02116448      28.02633590 
Ag      29.82837682      18.45731247      19.73915408 
Ag      13.73768818      21.50537581      22.59103769 
Ag      30.32883014      17.67582603      30.80043323 
Ag      26.76237700      16.02220959      18.55963226 
Ag      20.82811191      32.29469803      26.32048391 
Ag      19.22985064      27.89783817      17.18179651 
Ag      25.87563821      18.05170955      16.65758344 
Au      14.55253119      19.54905657      24.56971615 
Au      18.84084281      33.40368771      20.80266155 
Ag      23.86429729      21.93299780      12.78702943 
Ag      34.40500144      22.60322457      27.55419712 
Ag      29.07138402      32.47657745      29.26441136 
Ag      19.41033751      31.14029845      16.58718524 
Ag      23.75681508      15.27149905      18.77009417 
Ag      14.11486542      27.08790424      19.47262843 
Ag      21.10499683      26.75550863      34.26741446 
Ag      20.28643506      28.79905403      32.04428401 
S      20.63140816      15.84030569      33.45764978 
S      28.54400872      32.56809342      19.65787952 
S      24.07826047      22.70708572      35.72757308 
S      24.27933190      18.04879210      35.46890920 
S      12.47321828      18.17711563      24.15539588 
S      32.26699523      17.40653120      29.38194427 
S      31.45043739      14.91262210      21.40846417 
S      29.61987375      18.86719560      16.59488334 
S      28.33955530      21.89455984      33.33573546 
S      23.22194078      27.82148385      34.87172048 
S      13.46822439      30.03112894      24.99503468 
S      16.38861358      18.07970404      17.20976191 
S      32.71730707      23.11383328      19.92009392 
S      26.57789254      30.63926677      33.66319475 
S      22.95051017      32.52669940      32.59180460 
S      17.20655451      31.42329474      17.54679375 
S      11.44102101      22.35900165      22.95863063 
S      25.05200547      13.16855398      26.83082747 
S      33.73061005      29.17079754      27.65399590 
S      28.68896934      26.45499808      33.30145985 
S      23.91391942      24.15859635      11.82415673 
S      27.49198951      25.46846913      13.17079120 
S      19.03247059      33.36886921      30.42962929 
S      28.80297365      17.50504385      32.68809242 
S      21.17681388      34.06980598      24.58607250 
S      31.06465270      32.38216720      27.87814777 
S      28.90648488      29.19550346      16.27561848 
S      33.53276460      17.20462922      23.94678979 
S      34.88077712      21.76636073      23.52135558 
S      19.28212999      13.69000248      25.62499056 
S      20.69715812      33.70562751      19.37003960 
S      12.67235017      19.40823197      19.62598070 
S      18.83867729      30.23977425      33.50515519 
S      31.71147631      31.03360554      23.39882872 
S      35.17638610      27.31508109      23.44897812 
S      30.77385027      30.50320954      31.36092992 
S      23.24020741      13.33210467      23.32516694 
S      32.20919019      19.22440873      19.69306579 
S      28.54748008      14.54750208      17.67594677 
S      15.51973400      30.48595610      29.27692746 
S      31.69737248      21.89708917      31.08304512 
S      20.49852477      26.59666572      13.93998332 
S      17.06550531      26.97092337      16.36423244 
S      27.41882103      12.85545143      21.98672749 
S      16.76211397      33.58253449      26.28297463 
S      15.31069193      21.80742776      31.15722921 
S      21.07615789      16.80801407      15.61927005 
S      24.73679089      29.00840043      13.48132995 
S      19.93579631      22.23665409      14.12012862 
S      21.30086481      31.49588252      15.11952856 
S      23.49770251      34.11940519      28.07699323 
S      13.57186103      17.62390981      28.90540378 
S      24.30554766      33.56351339      22.20010515 
S      27.46718960      20.76845337      12.91898686 
S      16.44971146      23.14209022      16.71613516 
S      26.07390446      16.66795885      14.57315232 
S      17.29582441      14.48589231      30.13151144 
S      28.79655322      13.94477851      29.82844971 
S      27.33404552      33.39519639      30.70167006 
S      32.63468922      28.20198147      19.62811318 
S      24.88591671      14.62431577      32.41216525 
S      14.26435456      29.51996177      19.47482862 
S      13.26599717      25.95232850      27.34629990 
S      34.68019426      20.20886997      27.77758865 
S      30.30337684      23.45482851      16.11349694 
S      18.87232937      25.78731391      34.43096466 
S      35.16200849      24.88518113      27.20314764 
S      19.88968290      20.64044068      34.70529909 
S      32.22622921      26.07447027      30.52847319 
S      23.48624905      19.52913771      12.96567921 
S      16.93811605      33.40029965      22.20014398 
S      15.80982154      26.32457957      30.53138629 
S      11.67971219      27.08531720      22.91918739 
S      24.34559015      13.25325577      17.47304268 
S      13.06816776      24.91177822      19.17433671 
S      21.84026030      13.87576871      29.48747194 
S      16.63989228      17.70079447      32.47082237 
S      15.99328595      15.80939645      21.32800879 
S      14.94942169      15.05981535      25.98767645 
S      25.23757903      32.81751921      16.38202746 
S      29.76084942      13.60144288      25.99898944 
S      20.24002744      13.90237919      19.31925834 
S      27.22073907      33.60877305      25.71273175 
S      12.91079276      21.87210665      27.11172218 
C      21.17338531      14.09180895      33.31258613 
C      30.33204192      32.91226236      19.91780185 
C      23.46401489      24.04006222      36.83810667 
C      23.59917699      18.85027682      36.97541372 
C      11.05737770      19.10458048      24.86013633 
C      32.54084137      15.59571579      29.22481129 
C      31.55825665      13.09233283      21.64440656 
C      31.23048483      19.48604145      15.96237531 
C      28.20472539      22.91942878      34.85230588 
C      22.90012995      29.38128761      35.78268229 
C      13.34144157      31.79888003      24.50552019 
C      16.96790782      16.74055219      16.09190730 
C      33.34911765      24.09108427      18.49816160 
C      26.46196585      32.40945016      34.13159268 
C      22.54103492      34.18365878      31.91399580 
C      16.97660188      33.24494562      17.53347105 
C      10.65006054      22.29128839      21.29795554 
C      26.48843021      12.17910686      27.39284586 
C      34.82770205      28.32779477      28.86233215 
C      28.23301190      27.55967560      34.69427882 
C      23.08940259      23.95316034      10.19019149 
C      26.96336059      26.07502967      11.52570496 
C      17.51350294      33.13968861      31.44248049 
C      29.58060821      18.41107618      34.08292863 
C      19.60167896      34.94270061      24.25958800 
C      32.52372690      32.55298188      28.97402442 
C      28.76219959      30.21034714      14.75152860 
C      34.49625001      16.75147337      25.44640681 
C      35.69913922      21.78720543      21.87587542 
C      17.71389870      12.87283497      25.13501393 
C      21.51564836      35.23826744      19.96639894 
C      12.71907733      17.85831501      18.64823646 
C      18.91271426      29.67537518      35.25293024 
C      33.38832035      31.49950785      23.97676880 
C      35.56325344      28.71219000      22.32359849 
C      31.83316090      30.46843571      32.86910176 
C      21.77049487      12.27737933      23.02217081 
C      33.32685559      17.86013378      20.19565953 
C      28.04383224      12.81030676      18.01357613 
C      14.25736526      29.78292000      30.41278452 
C      33.09756907      20.71558384      31.11004127 
C      19.01432798      25.84520917      13.16155202 
C      15.81483523      28.29908130      16.19429352 
C      26.36517495      11.39544542      22.34189198 
C      15.14322100      33.86616090      27.10892399 
C      15.11256763      21.00358598      32.79564180 
C      21.76745533      15.65177935      14.37000145 
C      23.19540132      29.29777499      12.52137605 
C      20.08682154      20.90967535      12.86024312 
C      21.66595811      33.27559966      15.41249480 
C      24.04487475      35.44006379      26.92373066 
C      12.05321263      18.07968690      29.84240630 
C      25.83456399      34.57325736      22.27569707 
C      29.10632441      20.48682978      12.12824948 
C      16.42738043      21.95229006      15.32213718 
C      27.83767057      16.22363589      14.31035462 
C      17.34508937      12.64394525      30.11452024 
C      29.84747845      13.91640206      31.33864362 
C      27.84841541      35.15214857      30.90777450 
C      32.53053990      29.44031711      18.27208176 
C      25.86360628      14.78924284      33.96296490 
C      12.80665086      30.10883580      20.42700579 
C      12.00095171      27.08130965      26.65078705 
C      36.19535756      19.90371260      26.78008788 
C      30.72897947      24.56293650      14.70859223 
C      18.92820953      24.56613986      35.80384269 
C      36.43965403      24.66369256      25.90000105 
C      19.83128367      19.32222449      35.98310301 
C      32.44176985      25.75051662      32.32384537 
C      24.57550126      18.69256090      11.74635794 
C      15.48650633      33.39676062      21.07483372 
C      15.27454920      25.55590820      32.10937770 
C      10.69169363      27.18547836      21.36957692 
C      22.84423461      12.61932481      16.62297871 
C      12.97119032      24.66310986      17.35543911 
C      21.46468650      12.24092860      28.73635840 
C      16.43563414      16.07428389      33.29409436 
C      14.25220878      15.23174564      21.21978328 
C      13.16073193      14.93993709      26.38258587 
C      26.94531580      33.44534580      16.13026128 
C      31.51322757      13.34456057      25.50975470 
C      18.49740600      13.45418026      18.93367258 
C      28.91292456      34.31537877      25.78062093 
C      12.09243968      22.42811722      28.66070269 
H      22.19005790      14.02101091      32.90933229 
H      21.12479475      13.62973944      34.30490093 
H      20.47640430      13.58963209      32.63054493 
H      30.78805686      33.17385496      18.95661154 
H      30.41479967      33.76275487      20.60470900 
H      30.85101748      32.05149071      20.35438578 
H      24.33599495      24.55362850      37.26006142 
H      22.84974514      24.76958218      36.29829282 
H      22.88032487      23.58887010      37.64812689 
H      23.37506583      18.07753751      37.71896722 
H      24.37395507      19.52546853      37.35746202 
H      22.69942172      19.43380611      36.75501036 
H      11.15527759      19.07085144      25.95210134 
H      11.05704740      20.14765288      24.52308051 
H      10.13293338      18.60461908      24.54941707 
H      33.29647378      15.44216983      28.44511123 
H      32.92348913      15.21246814      30.17754744 
H      31.62077535      15.06564491      28.95238573 
H      30.57758264      12.65336635      21.85816482 
H      31.97588071      12.64639757      20.73469459 
H      32.23574461      12.89836900      22.48431375 
H      31.17396994      20.55331460      15.71871299 
H      31.98167387      19.33248791      16.74777781 
H      31.49662344      18.90837148      15.06989884 
H      27.88172280      22.27964173      35.68112568 
H      29.19330137      23.34173788      35.06634062 
H      27.48498724      23.73663078      34.71922799 
H      22.14051834      29.99494681      35.28302491 
H      22.57650761      29.13866369      36.80139764 
H      23.84396331      29.93955104      35.81420697 
H      12.71028246      32.32404909      25.23113121 
H      14.32397184      32.28139608      24.44986350 
H      12.86255067      31.83252677      23.51953169 
H      16.97777061      17.15382957      15.07593501 
H      17.97909737      16.40554723      16.34896135 
H      16.26496998      15.90204275      16.13942059 
H      32.54244436      24.65795772      18.01882899 
H      34.12750681      24.77657212      18.85068453 
H      33.77114324      23.38344785      17.77480816 
H      26.78691802      33.05308195      33.30711501 
H      25.41632138      32.63382307      34.37202227 
H      27.09618430      32.57431990      35.01018148 
H      21.61733185      34.16080378      31.32540277 
H      22.42338232      34.87438094      32.75689447 
H      23.37319722      34.50969833      31.27723144 
H      16.03334478      33.47420705      18.04270494 
H      17.80260082      33.75693999      18.03986133 
H      16.91583994      33.57275954      16.48929660 
H      11.25489849      22.80923760      20.54518889 
H      10.53798236      21.23771908      21.01454546 
H       9.66259854      22.76187353      21.36477603 
H      27.38793652      12.78721456      27.52504625 
H      26.23158066      11.69919085      28.34432972 
H      26.68187538      11.41380789      26.63099245 
H      35.78475067      28.86187831      28.88034692 
H      34.35321016      28.37705255      29.84981875 
H      34.99237937      27.27765506      28.59613930 
H      28.27754101      26.96071560      35.61213780 
H      28.95294715      28.38418476      34.75750886 
H      27.22739279      27.97380872      34.57497853 
H      22.96631465      24.94143268       9.73266808 
H      23.74487215      23.33726880       9.56314272 
H      22.11381499      23.46861906      10.29000110 
H      26.04714329      25.56959719      11.20208268 
H      26.77703557      27.15157975      11.62555089 
H      27.77746225      25.89524758      10.81426568 
H      17.80947192      32.83761993      32.45412744 
H      16.98380727      34.09838908      31.47684663 
H      16.86174670      32.37163408      31.01070701 
H      30.50968169      17.90096810      34.36073246 
H      29.77989561      19.45476467      33.81607312 
H      28.87800918      18.38491398      34.92456729 
H      18.73096179      34.29567740      24.39823373 
H      19.53916765      35.78086471      24.96441142 
H      19.61268141      35.32085938      23.22998375 
H      32.30045580      32.17610851      29.97853552 
H      33.34668044      31.97210201      28.54125689 
H      32.79212761      33.61480095      29.02085638 
H      29.49725470      31.02270796      14.78622902 
H      28.97939255      29.56283282      13.89383759 
H      27.75247434      30.62557591      14.63334015 
H      34.27401817      15.70276760      25.67726976 
H      35.56473251      16.85167702      25.22439425 
H      34.23577850      17.37684252      26.30838198 
H      34.96812321      21.66144377      21.06951727 
H      36.18883837      22.76209314      21.76509448 
H      36.45184793      20.99240115      21.83744396 
H      17.28397201      12.37771836      26.01386064 
H      16.98821750      13.59172167      24.74332356 
H      17.94788057      12.12509074      24.36810817 
H      22.41152467      35.38456099      19.35070322 
H      20.83451527      36.08553484      19.83198589 
H      21.81233622      35.14742220      21.01651209 
H      12.97403582      18.13138561      17.61756145 
H      13.47840757      17.16670121      19.02936982 
H      11.72592306      17.39678069      18.68414294 
H      18.65775184      30.51743342      35.90611680 
H      18.17448094      28.87403454      35.37414506 
H      19.90081252      29.28706829      35.52092719 
H      33.95637460      30.62673799      24.32742061 
H      33.92131216      31.98696850      23.15193812 
H      33.27018025      32.20456522      24.80833124 
H      35.53357819      28.33890740      21.29364530 
H      34.84626625      29.53319200      22.42519293 
H      36.57142084      29.06900085      22.56535637 
H      31.63514513      29.57704689      33.47245163 
H      32.88341415      30.47181863      32.55445008 
H      31.62760408      31.36708963      33.46216761 
H      21.57609407      11.68971777      23.92674712 
H      20.88935396      12.88706938      22.78875311 
H      21.99787892      11.61401428      22.17967807 
H      33.42012238      17.16472845      19.35348946 
H      34.30915183      18.28848187      20.42887263 
H      32.95511200      17.31207926      21.06590864 
H      27.21317730      12.54763010      17.34800255 
H      28.90463783      12.16356977      17.80874198 
H      27.72965938      12.68181619      19.05500187 
H      13.30402617      30.29884510      30.25520559 
H      14.13845280      28.70577400      30.25124288 
H      14.60353035      29.95605149      31.43883881 
H      33.00459372      20.11177476      32.02124950 
H      33.10323362      20.05452490      30.23846249 
H      34.03431295      21.28426050      31.13711641 
H      19.06018521      24.75051429      13.21010914 
H      18.14254743      26.20367668      13.72388621 
H      18.95566331      26.18020312      12.12023443 
H      15.84405527      29.00922092      17.02533528 
H      16.02001361      28.83394024      15.25914728 
H      14.82290478      27.83391512      16.14234074 
H      27.00219178      10.55373376      22.63371032 
H      25.63444752      11.61734600      23.12684796 
H      25.83463451      11.15235690      21.41303391 
H      14.37774073      33.97531237      26.33222902 
H      14.87913994      33.03595340      27.77372713 
H      15.20766564      34.79616604      27.68483150 
H      14.90033175      21.78519948      33.53456851 
H      14.26966247      20.30451104      32.74073287 
H      16.01229548      20.45201662      33.08392970 
H      21.90732907      16.21702714      13.44068259 
H      22.73612771      15.24300897      14.68609775 
H      21.05633779      14.83592535      14.19727071 
H      22.44580787      29.83207548      13.11533502 
H      23.45402883      29.88999874      11.63606100 
H      22.79547743      28.32313922      12.21534581 
H      19.07609890      20.55577425      12.62415230 
H      20.54950760      21.32001048      11.95470417 
H      20.69393269      20.07289224      13.21852220 
H      22.68444458      33.48619346      15.06621896 
H      20.94769357      33.86859583      14.83482490 
H      21.58281483      33.53157393      16.47416345 
H      24.10941018      36.38245848      27.47877673 
H      25.01509703      35.19328114      26.47649563 
H      23.28083716      35.51659959      26.13963968 
H      11.85201433      17.30576868      30.59160044 
H      12.16777174      19.05170623      30.33159961 
H      11.22230948      18.12338268      29.12806298 
H      25.92062199      35.12193787      21.33047613 
H      25.74251005      35.27294966      23.11404805 
H      26.72408782      33.94914635      22.42205183 
H      29.91520748      20.90718468      12.73346727 
H      29.24423373      19.40324542      12.03028324 
H      29.10493884      20.94724549      11.13381125 
H      15.41203077      21.54599044      15.24560037 
H      16.69236637      22.48957358      14.40451662 
H      17.14300594      21.13601925      15.47786752 
H      28.29186485      15.81843385      15.22139942 
H      27.88161711      15.47641802      13.50971296 
H      28.37953264      17.12737074      14.00645696 
H      16.31697484      12.26435936      30.13082011 
H      17.86334607      12.26602982      29.22774356 
H      17.87060905      12.30604822      31.01545464 
H      30.89690129      13.85240061      31.02848887 
H      29.70307149      14.81097837      31.95394531 
H      29.58892527      13.02296791      31.91824712 
H      28.00917411      35.63563890      29.93970001 
H      27.06913324      35.68485234      31.46453978 
H      28.78198266      35.15878178      31.48264946 
H      32.85412123      28.94957414      17.34658318 
H      31.50852194      29.81214863      18.13649296 
H      33.20587013      30.27245336      18.49930209 
H      26.64775019      15.54758041      33.86197985 
H      25.18124177      15.08059961      34.77083193 
H      26.31658718      13.81823488      34.19283507 
H      12.70510119      29.58803643      21.38624310 
H      12.94152945      31.18176142      20.60907051 
H      11.90384583      29.95754689      19.82435794 
H      12.30804277      27.51971905      25.69719039 
H      11.07769664      26.51000216      26.49910291 
H      11.82029831      27.88668615      27.37276861 
H      36.12151110      20.35057961      25.78249942 
H      37.05247789      20.32861412      27.31472580 
H      36.33108861      18.81983301      26.68737569 
H      30.09055610      25.45136911      14.68774343 
H      31.77715856      24.86372403      14.82331031 
H      30.60255129      24.01247215      13.76913518 
H      19.73870165      23.84116109      35.67122725 
H      19.06275733      25.11444401      36.74334228 
H      17.97142670      24.03156913      35.82056610 
H      36.65814377      25.64008083      25.45140298 
H      37.33982946      24.26689026      26.38428900 
H      36.09992173      23.96857849      25.12389960 
H      19.97661455      19.76738868      36.97399471 
H      18.83773913      18.86030599      35.93648527 
H      20.59157001      18.55038166      35.80238920 
H      32.59742660      24.67149129      32.44999145 
H      33.32511743      26.29593006      32.67507290 
H      31.55760883      26.05802801      32.89523340 
H      25.50724340      19.25057452      11.60641895 
H      24.80914472      17.69092718      12.12588252 
H      24.03144764      18.62189909      10.79754016 
H      14.59293109      33.33999698      21.70851508 
H      15.46926728      34.33360822      20.50718560 
H      15.50796976      32.53931275      20.39286257 
H      15.11245815      26.35886378      32.83798216 
H      14.33889501      25.01477328      31.92797566 
H      16.03619500      24.86115711      32.48199904 
H      11.15312627      26.61729573      20.55435672 
H       9.68897324      26.79391220      21.57405073 
H      10.61414536      28.24043583      21.08269806 
H      22.24102877      12.08349767      17.36472593 
H      22.24109249      13.42722525      16.19653811 
H      23.15806761      11.93290682      15.82843569 
H      12.56844942      23.65855528      17.17950478 
H      12.29333669      25.40939551      16.92658972 
H      13.96003616      24.73703569      16.89011577 
H      22.38884525      11.86293087      28.28096430 
H      21.13566489      11.55764612      29.52772802 
H      20.69052319      12.32305334      27.96481695 
H      16.47019912      15.26065320      32.56118704 
H      17.26633732      15.96664856      34.00227433 
H      15.48114112      16.06838370      33.83211618 
H      13.54715045      16.07283201      21.23285028 
H      14.12118314      14.63790251      20.30830358 
H      14.07304921      14.59866336      22.09778940 
H      12.89818758      13.87896049      26.46545261 
H      12.92963976      15.45847307      27.31903261 
H      12.59911984      15.40153223      25.56169187 
H      27.65540535      32.63616022      15.93387314 
H      26.92156392      34.13367429      15.27707126 
H      27.25201437      33.97828008      17.03740802 
H      31.82304258      14.05112583      24.73174270 
H      32.11963946      13.50015938      26.41043000 
H      31.64123352      12.31484077      25.15861785 
H      18.45397857      13.04482638      17.91839805 
H      18.18361144      12.68628252      19.65053619 
H      17.82857008      14.31828783      19.01968564 
H      28.99950922      35.05241931      24.97340649 
H      29.06180537      34.81037947      26.74726305 
H      29.67960837      33.54494367      25.65674449 
H      11.97337389      23.51792102      28.60541391 
H      11.10968602      21.94743113      28.72666868 
H      12.69460346      22.17377036      29.54018910 
