699
Properties=species:S:1:pos:R:3 i=76 optimized=T E=-11078.6732756604 pbc="F F F" jobid=279_84-Ag-30_1-000006-PBE
Au      33.20354939      25.55148908      26.04377125 
Au      32.04069481      29.54678447      21.52591868 
Au      34.59297656      28.25446993      25.42476262 
Au      29.82820867      14.87910346      19.69436773 
Ag      33.78810880      19.69320018      23.62868598 
Au      27.43244646      23.20212003      13.05487171 
Ag      18.29473068      33.16636884      28.04946352 
Au      28.65486388      30.69529110      18.07624173 
Au      24.95222018      21.23282806      23.26391434 
Au      26.35099363      23.27414873      24.93413609 
Ag      28.23313509      25.16130258      23.64360355 
Au      23.78547330      21.63295247      29.06120732 
Au      23.39472269      27.87992186      27.05239748 
Au      26.96004010      23.10388153      22.01960265 
Ag      22.38061320      19.56230459      27.43254149 
Au      27.28058134      21.18260359      26.74412039 
Au      22.00619234      21.49733619      22.71691289 
Ag      21.01884855      23.54716345      20.84940231 
Au      27.66372280      25.29830657      26.58827058 
Ag      19.98388446      24.05241407      26.72812590 
Au      25.48031778      21.01266168      20.36263031 
Ag      24.30012186      25.73132953      28.86498918 
Au      23.86644887      27.73486392      24.04444028 
Au      26.20802693      27.63172543      27.66135232 
Au      20.91967687      21.92272193      28.45787409 
Au      22.86343675      23.72441388      27.24669711 
Ag      21.48404814      21.69660668      25.60155266 
Au      19.56636903      19.84706765      26.87523795 
Au      25.84665976      19.11697524      25.11900008 
Au      25.28043652      23.62418354      30.77137588 
Au      23.02555549      25.37372902      19.59068884 
Au      21.00114107      27.90747643      23.54803160 
Au      26.65110182      27.41641674      24.72801004 
Au      22.56994162      21.28622623      19.83548062 
Au      21.95825707      25.83759823      25.38823111 
Au      27.24497017      25.55155344      29.51032282 
Au      20.15562397      19.65487286      24.00369887 
Au      25.90680991      25.13126079      20.19002380 
Au      23.50224308      19.18038042      21.65453187 
Ag      22.33408489      23.91276497      30.11133939 
Au      21.05829597      17.48798968      25.82057751 
Au      21.57935105      27.66043134      20.60571096 
Ag      24.40488445      27.46382569      21.18707223 
Au      24.52969424      23.10114971      18.53512810 
Ag      28.65660047      23.22684727      28.47717593 
Au      18.61856194      21.94428690      25.09449120 
Au      26.73054747      21.30038958      29.63479322 
Au      22.39456170      30.08231159      25.13529610 
Au      27.25770182      27.21314470      21.77152665 
Ag      21.81942104      19.73854806      30.34854273 
Au      18.47095705      26.38750477      27.74826194 
Au      23.17234718      21.74809800      31.96933203 
Au      21.60671224      23.37193442      17.92597594 
Au      17.11322592      24.29528484      26.23635772 
Au      27.47020352      22.80479440      19.06205977 
Au      23.91093606      17.20240022      26.35845978 
Ag      23.23294600      17.45528656      29.28473102 
Au      25.21785690      29.81943438      25.78638520 
Au      21.61188786      17.22790516      22.86921070 
Au      28.83335942      18.80736690      25.68178639 
Au      22.85887878      29.78290803      22.20693108 
Au      25.36057812      25.38368755      23.05736406 
Au      20.09914011      25.62604560      18.97656309 
Au      29.55874042      27.18514961      25.39309261 
Ag      19.34627843      24.28100641      29.59748024 
Ag      18.02052478      22.17812760      27.96905208 
Au      19.97502114      28.37160686      29.44331444 
Ag      23.70250120      25.85015572      31.72313240 
Au      20.91271142      26.27406439      31.22769853 
Ag      26.40604199      18.97110036      22.17391253 
Au      24.64224291      19.49456478      30.87016667 
Ag      20.37888910      17.70299480      28.73500724 
Au      28.90033917      24.89642680      20.73289400 
Au      19.54386590      30.18254521      24.64480293 
Ag      25.74995000      29.61512041      22.81879412 
Ag      24.97661392      27.17490795      18.26448197 
Au      28.43462550      20.81128408      20.88633355 
Au      29.10892118      27.49429792      28.35127478 
Au      30.15786070      20.96465701      27.30757962 
Au      18.12162532      23.88163016      20.32993114 
Au      17.69245688      19.66909492      20.66096272 
Au      25.56821971      27.74727611      30.50946740 
Au      28.21077654      23.50719709      31.32736919 
Ag      21.98349003      30.20962606      28.11322746 
Au      21.78288852      24.10176473      32.94927293 
Au      18.65592313      27.95060507      20.08450079 
Au      16.21437869      21.95384080      21.62676414 
Au      30.56233004      25.11830253      27.16332472 
Au      23.41910616      23.51945565      24.34290317 
Au      19.99216887      29.99268298      21.67016497 
Au      16.59986639      20.03062534      26.38049481 
Ag      26.73061772      17.00984808      26.92060474 
Au      30.01600946      25.35078380      30.11618871 
Au      17.56972361      28.47896910      25.89150590 
Au      16.20358108      26.33799714      24.32245530 
Au      28.53712588      29.21593473      23.38922005 
Ag      27.86136013      26.95587792      18.96604149 
Ag      24.08737374      18.97002721      18.68819898 
Au      27.34238950      16.82940821      23.97955209 
Au      26.91602292      18.75909872      19.21997038 
Au      26.03280192      21.33865788      32.66267938 
Au      12.49488136      18.84490185      21.84003087 
Au      23.07190472      21.05437681      16.97964294 
Au      26.34748003      29.22235803      19.84981856 
Au      19.78566455      19.66242312      32.41284638 
Au      26.05056510      17.16853561      29.78641354 
Au      29.26260567      18.69498058      22.74501865 
Au      27.60541466      29.83986255      29.19726916 
Au      15.22950635      22.46574399      27.38750951 
Ag      26.00634606      20.82202791      17.36895209 
Ag      24.58684031      23.75818497      33.56939042 
Ag      23.63187097      25.10931737      16.58246885 
Au      17.56847514      17.95069434      28.17933374 
Au      19.16962445      30.42097217      27.54999192 
Ag      23.51261295      29.56306189      19.21210573 
Ag      22.45585009      25.60099073      22.47179713 
Au      16.18822688      20.15422287      29.32737854 
Au      27.51938025      19.14853761      31.34397215 
Ag      29.21282863      29.02984603      20.55087579 
Ag      16.44638781      24.52589650      29.03282841 
Ag      32.09116768      22.85499926      26.13224674 
Au      16.59351303      21.76943924      18.74658934 
Au      24.89722522      31.57941856      20.75479488 
Au      21.95368271      31.75744422      20.41344019 
Au      20.75658940      25.38039623      16.12707852 
Au      24.34634266      31.88298281      23.98164988 
Au      20.64506290      29.78778853      18.76556265 
Ag      23.15554035      15.03386897      21.65067258 
Ag      30.34479688      22.57658826      19.64167267 
Au      25.14074462      22.86348496      15.53660914 
Ag      18.69276012      23.72120627      17.34424452 
Ag      28.85575284      20.57786356      17.96870359 
Ag      17.58444677      22.45300396      30.91148237 
Au      17.13808295      28.67448457      28.78259015 
Au      27.84813894      16.68367789      21.05646931 
Au      15.55160328      26.88835515      27.09231308 
Ag      18.86424999      15.67161021      27.04357429 
Ag      19.65090082      15.45871765      24.04444538 
Ag      17.99036408      26.64589837      30.74389344 
Ag      20.22699385      15.36820867      21.18538315 
Ag      27.32005116      31.58044465      24.35574452 
Ag      24.85768022      15.08608989      28.32961649 
Au      23.96791227      23.31970646      21.45672162 
Au      20.03572289      21.23617661      16.41200334 
Au      27.88361254      22.75215641      16.00303942 
Au      31.40599879      20.40313617      21.77546291 
Ag      26.81465591      31.92449673      27.41423517 
Au      25.66477908      14.93689332      25.21575687 
Au      28.68890069      16.29435602      28.86445420 
Ag      26.03773877      14.81009572      22.30747118 
Au      32.57699252      22.65110966      23.28829141 
Ag      25.82637425      30.43947545      31.44307494 
Au      23.03434313      30.87114743      30.80063893 
Ag      24.11500728      16.98350935      31.99474528 
Au      31.34815827      17.88010726      24.74779177 
Au      17.00299254      26.08626942      18.62106270 
Au      31.50170511      23.06420040      28.88192735 
Au      29.37898369      16.06039433      25.98710803 
Ag      15.52130820      29.26602622      24.00860410 
Au      16.05069583      29.04448034      21.11976790 
Au      17.10445008      31.27531896      25.68899011 
Au      29.50483795      24.85918630      17.90511885 
Ag      30.77755159      18.05247886      27.65885398 
Ag      18.42646168      17.55595579      30.92634933 
Au      23.99988020      19.64602798      33.65657526 
Au      18.06085250      30.76007269      19.77307352 
Ag      17.49904359      31.09722082      22.72748960 
Au      14.17574437      27.10606980      22.47060808 
Ag      32.67892429      19.97046312      26.39320302 
Au      24.80800577      25.55401506      25.97672436 
Au      32.92465783      26.87978675      23.00003275 
Au      24.70388090      20.03331016      14.85671538 
Au      20.15835844      31.10237792      30.14102020 
Au      31.78065505      27.78535468      27.20498219 
Au      23.81265879      28.52964064      32.58624790 
Au      29.82395509      15.87152564      23.06247515 
Au      22.34455306      16.92820029      34.45477963 
Ag      13.89992791      19.49952307      27.61778058 
Au      24.04575998      27.77938978      15.55683740 
Ag      15.38785698      17.46367667      30.42296096 
Au      25.70411409      25.61927782      14.67551110 
Au      28.96301452      30.74138752      32.51795380 
Au      22.43212205      29.94553641      16.48754762 
Au      21.99340628      21.74190711      34.91780530 
Ag      31.02893976      28.41847709      30.37355731 
Ag      19.70723548      15.03213535      29.76502983 
Ag      22.89867743      25.53338417      13.68876996 
Ag      16.16059578      15.24716166      28.21669611 
Au      25.49468472      33.79718644      29.28692942 
Au      26.51643124      14.49919054      30.98519807 
Au      28.55374387      13.30515606      24.02798607 
Au      16.24135183      17.09903945      19.39187065 
Ag      16.14102571      17.17698383      23.33452760 
Ag      20.81562693      15.48838909      17.85560224 
Au      11.79477155      24.63145055      22.97508202 
Ag      14.76827089      30.00347506      27.03793379 
Au      24.33558875      21.38003008      26.16748568 
Au      14.96695412      19.87014290      20.10149431 
Au      25.60737443      31.19867692      18.07529064 
Ag      27.71541081      19.98821396      15.07973468 
Au      30.19418325      27.05096957      22.48958521 
Au      31.12357801      24.96246294      24.25180998 
Au      31.86156946      24.81340451      21.40593246 
Au      20.51916664      23.78756107      23.77901632 
Ag      25.17793630      14.88623641      16.12943273 
Ag      30.74689941      29.74621036      25.11360015 
Au      25.78517534      23.43343292      27.87438474 
Ag      27.01208013      27.59869341      16.31444463 
Au      20.67248940      31.35576833      33.15060257 
Au      17.66810090      24.00105236      23.27695745 
Ag      22.99551616      19.33868247      24.50586621 
Au      27.80899036      20.96949509      23.85625583 
Au      19.59325298      25.87740878      21.92250965 
Au      24.97068049      30.88285811      14.87796502 
Au      25.18719142      19.27102656      27.98617281 
Au      19.06851285      26.10013708      24.84647874 
Au      20.59167261      28.12642589      26.50312507 
Au      21.41291488      26.01361774      28.34215776 
Ag      29.21469966      23.09211890      25.52357132 
Ag      19.13631757      21.73678065      22.16065685 
Au      24.52321566      17.03233900      23.43589013 
Ag      22.80883130      28.12486696      29.92843319 
Ag      20.64193790      19.48835730      21.11671796 
Ag      20.37774055      22.20485712      31.30993806 
Au      24.80211791      30.07071442      28.74989055 
Au      18.01444694      28.27594847      22.98080516 
Au      28.17519797      19.01649705      28.51702640 
Au      19.04574036      20.10041206      29.74294716 
Au      29.80402057      22.81769008      22.63147247 
Au      19.58837914      21.58485186      19.22405882 
Au      18.24086078      17.78484479      25.19332279 
Au      15.75729830      22.13144233      24.52814960 
Au      16.63422971      26.17021092      21.41919899 
Au      26.53495908      24.92705591      17.33982867 
Au      28.02976107      29.52348166      26.26834682 
Ag      17.18044652      19.85609129      23.48336707 
Ag      18.80370800      17.62836840      22.36435822 
Au      30.72591000      20.74885926      24.48761508 
Au      22.17307031      27.43766087      17.73048661 
Ag      21.12100820      19.29801322      18.25531938 
Ag      22.15901340      17.19174266      19.95487144 
Au      21.90750911      15.48512522      27.60624766 
Ag      18.96642506      24.43427330      32.45947342 
Au      26.43249512      25.61084326      32.43536192 
Au      14.77153431      24.26254768      22.76526627 
Au      29.58852888      20.85908136      30.18001027 
Au      23.79412324      32.06131008      26.79779143 
Au      22.48138473      15.15535509      24.80561973 
Ag      24.98434186      16.93240101      20.55044973 
Au      28.27778581      28.11803487      31.29305295 
Au      19.28685803      17.50128190      19.53657136 
Ag      27.75313207      31.24682778      21.52516823 
Au      15.25013812      24.09810093      19.87986951 
Ag      21.23412374      17.14496180      31.43832573 
Au      20.90842523      32.19950126      23.11493434 
Ag      14.16409576      24.48888842      25.50604990 
Au      22.42479616      22.93609494      14.92072276 
Au      30.68432226      26.79891063      19.54184028 
Au      18.26151063      19.51993535      17.72393513 
Au      22.81606533      18.30945192      16.20052519 
Au      15.53458283      17.39357488      26.14154839 
Au      30.25684425      30.06388989      28.02039264 
Au      29.73654846      18.37012184      19.83591824 
Au      13.60392407      21.61665315      22.70769561 
Au      30.51945436      17.43755957      30.94807015 
Au      26.68328223      15.97016050      18.50809245 
Ag      20.80516447      32.30960069      26.24186235 
Au      19.29407651      27.96834938      17.19740036 
Au      25.88296525      18.00906503      16.59863207 
Au      14.43303087      19.52283578      24.54137353 
Au      18.94103217      33.44233920      20.85218777 
Ag      24.23484272      22.19332598      12.64251813 
Au      34.78328733      22.53633574      27.33953942 
Au      29.09901060      32.91416544      29.17343754 
Au      19.24875894      31.34910284      16.54363581 
Ag      23.73148015      15.10389826      18.81460177 
Ag      14.10387238      27.12264247      19.47664530 
Au      20.92182416      26.69719258      34.40202295 
Au      19.59751347      28.46519088      32.27122945 
S      20.52395517      15.81761550      33.47427417 
S      28.67166524      32.53014787      19.58009783 
S      23.93007806      22.81818956      35.79007860 
S      24.14035987      18.06251375      35.48515735 
S      12.40429365      18.17426480      24.08740141 
S      32.34812555      17.33085030      29.46449519 
S      31.40703512      14.95352020      21.44344812 
S      29.60328858      18.89948942      16.31169345 
S      28.27836358      22.04414425      33.30510090 
S      22.99862874      27.81929235      34.76753627 
S      13.42828683      30.11950612      25.01108043 
S      16.37613360      18.03691599      17.20532437 
S      32.76651491      23.21810631      19.79733068 
S      26.89111440      30.95913405      33.62531151 
S      22.78920100      32.32025385      32.78735236 
S      17.16062930      31.49176215      17.62330614 
S      11.27912158      22.33974817      22.79412553 
S      25.02614859      13.15966496      26.72453183 
S      33.86364018      29.10547880      27.48870294 
S      28.37399907      26.76371552      33.35437199 
S      23.95297169      24.43694904      11.72738540 
S      27.60447608      25.56164297      13.13465074 
S      19.32685982      33.39660803      30.22727381 
S      28.83712279      17.51967411      32.61202440 
S      21.18758204      34.12856109      24.54646171 
S      30.93267253      32.38814149      27.78187487 
S      28.95379437      29.14501466      16.29848351 
S      33.51774847      17.27480774      23.83170703 
S      34.87879158      21.87951034      23.53551986 
S      19.14709523      13.60858711      25.64019764 
S      20.79283552      33.66530296      19.38420561 
S      12.64665970      19.44323790      19.56576740 
S      18.61336010      30.27174727      33.55130778 
S      31.73717471      31.10620520      23.28633265 
S      35.26720156      27.38808537      23.34395021 
S      31.14355073      30.58554001      31.63693325 
S      23.06499346      13.24058604      23.40317038 
S      32.01410395      19.26528346      19.70251170 
S      28.47683568      14.44771140      17.81139763 
S      15.53102256      30.40599967      29.33466999 
S      31.65046398      21.86051758      31.02533943 
S      20.67330127      26.63498674      14.05411616 
S      17.25008505      26.94562898      16.35088029 
S      27.38835813      12.72069326      22.06132037 
S      16.68344587      33.59984639      26.27307927 
S      15.23208569      21.60486735      31.06221882 
S      21.14788432      16.63497512      15.70935912 
S      24.70520018      29.01752468      13.47642429 
S      20.19999364      22.15824457      14.16696254 
S      21.14457121      31.51534307      15.15287980 
S      23.49602537      34.11096361      28.08468008 
S      13.41526512      17.50791947      29.00609598 
S      24.32666365      33.50370159      22.15896195 
S      27.56491910      20.87640224      12.73148727 
S      16.37631292      23.01603779      16.66221364 
S      26.04386336      16.54300857      14.60867157 
S      17.36845055      14.29253852      30.10110555 
S      28.44273253      14.00709455      29.70424458 
S      27.43947334      33.76022641      30.62033245 
S      32.62077134      28.30364719      19.58581991 
S      24.76116949      14.63772889      32.54947474 
S      14.34258955      29.56227908      19.46325583 
S      13.35822932      25.92238350      27.40371247 
S      34.76849668      20.21099367      27.70305867 
S      30.27833951      23.37825375      16.11678097 
S      18.77389079      25.69282805      34.62503284 
S      35.27462252      24.82121477      27.07229211 
S      19.87776053      20.68133432      34.62080112 
S      32.15813348      26.21853930      30.84908005 
S      23.79489647      19.75922923      12.61648955 
S      17.06119436      33.51111837      22.27326526 
S      15.58244393      26.05271774      30.81173131 
S      11.81254960      26.99091533      23.05846331 
S      24.27447362      13.09798712      17.46616089 
S      13.06986140      24.92635273      19.17583145 
S      21.92724931      13.87427381      29.42234774 
S      16.57709827      17.43225984      32.55972019 
S      15.85356684      15.76501069      21.31525480 
S      14.83957123      15.07607011      26.13204118 
S      25.32091167      32.75903298      16.25575264 
S      29.75648062      13.63760560      26.03584444 
S      20.14720957      13.68106271      19.36968319 
S      27.08697834      33.69704227      25.60851587 
S      12.89388488      21.76935410      27.27548286 
C      21.05144083      14.06916896      33.29495145 
C      30.43978272      32.92728156      19.87871135 
C      23.28508501      24.19105038      36.82599761 
C      23.47487770      18.89095012      36.98100602 
C      11.00402897      19.08960663      24.83748314 
C      32.62545377      15.54515888      29.14016080 
C      31.69222192      13.17397488      21.79324703 
C      31.16227569      19.57756488      15.62078821 
C      28.08627073      23.10141674      34.78752775 
C      22.57076216      29.31872475      35.73095956 
C      13.34067915      31.89163490      24.53560027 
C      17.05107618      16.69279328      16.15306515 
C      33.29680512      24.22309698      18.36064730 
C      26.65048978      32.73069374      34.02648719 
C      22.49104404      34.01415834      32.15690850 
C      16.83121078      33.29664967      17.63806409 
C      10.63230231      22.24159436      21.07830399 
C      26.48521691      12.11737026      27.09478799 
C      34.86991283      28.26045676      28.76794436 
C      27.77008896      27.75404733      34.77051175 
C      22.56662114      24.28846369      10.52692745 
C      27.05939705      26.24735821      11.52424143 
C      17.86550705      33.34981267      31.34100893 
C      29.59258678      18.46062244      33.99501533 
C      19.68178691      35.16297649      24.39617555 
C      32.44046200      32.59966647      28.80405870 
C      28.80102372      30.14552333      14.76599574 
C      34.54601419      16.72589483      25.24999945 
C      35.65697941      21.99664873      21.87707831 
C      17.53007734      12.86764337      25.18117270 
C      21.67097838      35.16279300      19.97844577 
C      12.57550950      17.88622508      18.59829043 
C      18.61860737      29.74338488      35.30894387 
C      33.42656529      31.60486515      23.80410262 
C      35.70024757      28.79981288      22.25622069 
C      32.18313486      30.17765047      33.09752288 
C      21.55547240      12.26097917      23.05689169 
C      33.22055249      17.93908087      20.07466465 
C      27.91357152      12.73019477      18.13063401 
C      14.28465319      29.62827009      30.43449064 
C      32.98675634      20.61733974      30.91399242 
C      19.46532543      25.74792623      12.99826622 
C      15.99503204      28.25649467      16.10209232 
C      26.30266159      11.32070338      22.54574645 
C      15.13051605      33.78274187      27.24109679 
C      15.11185033      20.68481667      32.64388695 
C      21.85663900      15.46149276      14.49174864 
C      23.16544159      29.33336720      12.53016517 
C      20.43448023      20.70693987      13.07409586 
C      21.74511972      33.21507386      15.48898987 
C      23.91701430      35.45235843      26.90606718 
C      12.07695353      18.05696644      30.14490199 
C      25.85406189      34.51118266      22.20463183 
C      29.23396266      20.62459903      12.00509120 
C      16.41941951      21.77825521      15.31456357 
C      27.80543533      16.07220307      14.40073796 
C      17.41979743      12.48615289      29.74864275 
C      29.70679333      13.67634055      30.99316481 
C      27.86269239      35.54533286      30.76201763 
C      32.49629429      29.46201088      18.16866682 
C      25.68416102      14.78845621      34.13264317 
C      12.91050726      30.22698979      20.40002442 
C      12.09511813      27.12066760      26.83350276 
C      36.23520790      19.67890491      26.73094318 
C      30.71085389      24.45670575      14.69803235 
C      18.94533799      24.48144664      35.99495410 
C      36.53228255      24.77808189      25.73633964 
C      19.79486222      19.33749231      35.86308239 
C      32.15223821      25.99245628      32.66978406 
C      24.96522885      18.81169825      11.57615657 
C      15.58791141      33.56584945      21.18008574 
C      15.27191374      25.17978954      32.39362336 
C      10.75872267      27.42185391      21.61729620 
C      22.76632612      12.45587935      16.63788510 
C      12.96487072      24.63620787      17.36587741 
C      21.58313147      12.27178998      28.59512874 
C      16.49864919      15.75923967      33.30811897 
C      14.07491754      15.31597205      21.23857085 
C      13.03912458      15.00573111      26.46208121 
C      26.98466414      33.42688978      15.86361177 
C      31.52657166      13.42523770      25.59877141 
C      18.37097285      13.37847516      18.99980633 
C      28.73522381      34.50419519      25.67416705 
C      12.16074059      22.29680634      28.87016469 
H      22.03895460      13.99003398      32.82811487 
H      21.06363862      13.60268773      34.28612049 
H      20.30496540      13.57473810      32.66089326 
H      30.89165263      33.26722935      18.94051284 
H      30.46922593      33.73803769      20.61668895 
H      30.98758775      32.06427520      20.27528403 
H      24.14891718      24.77122379      37.17223302 
H      22.61713958      24.84739101      36.25604098 
H      22.75639423      23.76971945      37.68805122 
H      23.21280903      18.12238650      37.71665159 
H      24.27092268      19.53449466      37.37370621 
H      22.60381297      19.51038585      36.74178629 
H      11.10670502      19.00621256      25.92648613 
H      11.01158449      20.14487886      24.54506694 
H      10.07298395      18.61341795      24.50967155 
H      33.41792755      15.47428987      28.38517448 
H      32.95746194      15.05753040      30.06336651 
H      31.71631252      15.06427744      28.76356846 
H      30.75775721      12.66565890      22.05643917 
H      32.13623827      12.71540168      20.90242362 
H      32.39951680      13.11079262      22.62844094 
H      31.07217581      20.64759080      15.39934928 
H      31.95683734      19.43322181      16.36344612 
H      31.41048366      19.02544628      14.70657633 
H      27.77473184      22.46868908      35.62628388 
H      29.06035321      23.55914124      34.99785079 
H      27.34295523      23.89034541      34.61434735 
H      21.87420663      29.96530557      35.17922778 
H      22.12992745      29.00721216      36.68493665 
H      23.50322895      29.86578852      35.91522052 
H      12.67555893      32.41557013      25.23165997 
H      14.33124969      32.35987309      24.54048281 
H      12.91803103      31.94643451      23.52514505 
H      17.22684392      17.11188935      15.15518355 
H      17.99490015      16.30572200      16.55257406 
H      16.30628086      15.89119816      16.09385446 
H      32.47782057      24.85930270      18.00260773 
H      34.15021595      24.84395703      18.65490041 
H      33.59510866      23.52759821      17.56666750 
H      26.91393243      33.36526461      33.17448174 
H      25.59072083      32.86582905      34.27538571 
H      27.27358573      32.98104222      34.89244917 
H      21.66078788      34.03332618      31.44125855 
H      22.26383927      34.65949027      33.01333016 
H      23.41384498      34.34904096      31.66585299 
H      15.86959559      33.45107202      18.14124641 
H      17.62027304      33.84036799      18.16977469 
H      16.76259215      33.64370058      16.60096450 
H      11.31075835      22.73387881      20.37310923 
H      10.53001781      21.18050357      20.82079471 
H       9.65175779      22.73078942      21.06016915 
H      27.32310722      12.69754117      27.49131794 
H      26.17187463      11.38068689      27.84521073 
H      26.79538895      11.60316860      26.17720067 
H      35.85232079      28.74569846      28.79937094 
H      34.35406257      28.38603139      29.72776486 
H      34.98308761      27.19342398      28.54965972 
H      27.71326909      27.08649446      35.63876908 
H      28.48319488      28.56414662      34.96387037 
H      26.78364961      28.18235165      34.56702070 
H      22.33048112      25.28729333      10.14102628 
H      22.88500681      23.64625786       9.69742284 
H      21.67459769      23.86184958      10.99669315 
H      26.14477454      25.75519936      11.17521810 
H      26.87090126      27.31716539      11.67589242 
H      27.87307314      26.10599239      10.80367900 
H      18.22030871      33.19541349      32.36747700 
H      17.35176730      34.31522679      31.26379763 
H      17.18091319      32.54018972      31.06596987 
H      30.40699552      17.86251925      34.41864672 
H      29.96515106      19.43341663      33.65836899 
H      28.81006820      18.61312037      34.74813033 
H      18.76375573      34.57909884      24.51045300 
H      19.72614427      35.92408379      25.18494408 
H      19.68197144      35.64752664      23.41266888 
H      32.28541435      32.21391598      29.81771228 
H      33.24748685      32.04330398      28.31207307 
H      32.67987969      33.66891843      28.83362881 
H      29.56490441      30.93120524      14.76705973 
H      28.97604220      29.46902654      13.92038597 
H      27.79922406      30.58611088      14.67088410 
H      34.29933366      15.67824668      25.45983573 
H      35.60195191      16.80198319      24.96577057 
H      34.35472768      17.33091214      26.14281766 
H      34.93409354      21.78310107      21.08270869 
H      36.02985135      23.02027552      21.75208171 
H      36.49302127      21.28942573      21.83551135 
H      17.04723906      12.45987317      26.07687706 
H      16.86161803      13.60310558      24.72365672 
H      17.72349492      12.05606550      24.46955582 
H      22.59896910      35.24856362      19.40039561 
H      21.03488229      36.03561263      19.79318774 
H      21.91280236      35.08349314      21.04359336 
H      12.83178495      18.13752690      17.56232656 
H      13.29173631      17.14783730      18.97396104 
H      11.55422846      17.49252426      18.64930954 
H      18.48080381      30.62999054      35.93810996 
H      17.77815683      29.05187058      35.44130216 
H      19.54783824      29.22763623      35.57083681 
H      34.00626678      30.74729146      24.17148394 
H      33.94070239      32.07998308      22.96112960 
H      33.30970336      32.33247878      24.61672671 
H      35.83977804      28.39731665      21.24593757 
H      34.90339303      29.55075300      22.23436676 
H      36.63541395      29.24180226      22.61799050 
H      31.81691669      29.28110340      33.60720213 
H      33.20635196      30.00424811      32.74324675 
H      32.17477199      31.02646456      33.79060951 
H      21.16714968      11.87097220      24.00435065 
H      20.78126526      12.86501984      22.56749165 
H      21.84680949      11.43763904      22.39344708 
H      33.27322547      17.28081315      19.19902296 
H      34.19662367      18.40905691      20.24703303 
H      32.93096148      17.35400503      20.95185976 
H      27.08841972      12.51009416      17.44256021 
H      28.75912102      12.06092064      17.93370126 
H      27.57755327      12.61250012      19.16646004 
H      13.36360178      30.22021805      30.38553847 
H      14.08837523      28.59138959      30.14202584 
H      14.68186762      29.64065843      31.45632471 
H      32.84934244      19.88727195      31.72085224 
H      32.98225122      20.09799036      29.95169444 
H      33.94354699      21.13877865      31.03745571 
H      19.64052820      24.66581586      13.00758766 
H      18.45786887      25.95828749      13.37738640 
H      19.56494887      26.13331987      11.97631241 
H      15.93403074      28.93494402      16.95794176 
H      16.27490885      28.82382986      15.20635515 
H      15.02550991      27.76773848      15.94600189 
H      26.92290026      10.46121817      22.82178260 
H      25.63818364      11.59730108      23.37134606 
H      25.69598016      11.06958339      21.66695988 
H      14.28341808      33.77871404      26.54611951 
H      15.01070067      32.97646049      27.97278544 
H      15.17337494      34.74945107      27.75655152 
H      14.80570898      21.40652005      33.41157370 
H      14.35499756      19.89698992      32.55511046 
H      16.06667916      20.23079420      32.92599163 
H      22.04502391      16.01087499      13.56195403 
H      22.79922908      15.02395788      14.84871220 
H      21.12430371      14.66657128      14.30661142 
H      22.36914674      29.71701403      13.17627240 
H      23.39405034      30.05931371      11.74158740 
H      22.85363707      28.37985717      12.08663569 
H      19.44470370      20.28016678      12.87251933 
H      20.89468519      21.04268270      12.13740857 
H      21.07598441      19.95287038      13.54080739 
H      22.74018711      33.31531116      15.04037275 
H      21.04501854      33.91468574      15.01805852 
H      21.79841933      33.40855362      16.56524801 
H      23.94107076      36.39741995      27.46053686 
H      24.88542195      35.25962499      26.42926314 
H      23.12379364      35.47581068      26.14789547 
H      11.93261409      17.29138841      30.91596762 
H      12.32350951      19.01266981      30.61860160 
H      11.15255701      18.16696147      29.56551735 
H      25.97744590      34.98633531      21.22488719 
H      25.72979927      35.26903733      22.98723068 
H      26.73104078      33.89559262      22.43909717 
H      30.02064523      20.99490278      12.66949890 
H      29.36381890      19.54635422      11.85127126 
H      29.28666503      21.14028382      11.03970854 
H      15.49056040      21.19756979      15.33333342 
H      16.50174902      22.32740134      14.36851808 
H      17.28128478      21.10726162      15.42341897 
H      28.23369040      15.68282134      15.33040964 
H      27.85160104      15.30389715      13.61978624 
H      28.36764159      16.96032765      14.08902457 
H      16.39342849      12.10119910      29.74964479 
H      17.88862533      12.28397188      28.77983260 
H      17.99193144      11.99235562      30.54294244 
H      30.65567858      13.47827999      30.48076349 
H      29.82277102      14.53233200      31.66669881 
H      29.40150645      12.78657404      31.55544121 
H      27.93628130      36.01783634      29.77862282 
H      27.07880102      36.03262932      31.35321524 
H      28.82267923      35.61867958      31.28582014 
H      32.67251390      28.88158318      17.25519640 
H      31.50528836      29.92778967      18.11272797 
H      33.27261750      30.22737873      18.28017903 
H      26.45240387      15.56633870      34.07487184 
H      24.95800564      15.05078328      34.91212362 
H      26.14726734      13.82278618      34.36310502 
H      12.82537677      29.75167848      21.38311030 
H      13.06456172      31.30517387      20.52832113 
H      11.99804724      30.05621637      19.81732322 
H      12.33800862      27.54737370      25.85636424 
H      11.14285703      26.58073369      26.76283655 
H      12.00969809      27.92549164      27.57326733 
H      36.15547224      19.98460349      25.68175270 
H      37.13037050      20.12053691      27.18226897 
H      36.29791501      18.58684810      26.79799994 
H      30.02667343      25.30611054      14.61469511 
H      31.73511307      24.81472486      14.85729627 
H      30.65976669      23.86229533      13.77793130 
H      19.74306853      23.75710791      35.79455307 
H      19.14928289      25.02125770      36.92611719 
H      17.98998319      23.94958460      36.08051291 
H      36.72106475      25.81108993      25.42101644 
H      37.44632260      24.33631341      26.14943284 
H      36.17825921      24.18358385      24.88713031 
H      19.87795948      19.77796624      36.86330358 
H      18.81827532      18.85113954      35.75086273 
H      20.58907627      18.59500441      35.70314171 
H      32.29956217      24.92731968      32.88517271 
H      32.98682342      26.57025046      33.08538046 
H      31.20764220      26.32883530      33.11225518 
H      25.90457198      19.35752158      11.44114949 
H      25.16113037      17.84852137      12.06246757 
H      24.47795710      18.65221251      10.60640303 
H      14.70737417      33.54617894      21.83413512 
H      15.59431965      34.49913976      20.60642535 
H      15.56147092      32.70395596      20.50467207 
H      15.40639345      25.88254005      33.22332211 
H      14.23889695      24.81242611      32.37751974 
H      15.95195621      24.32758750      32.52251185 
H      11.13916845      26.97038454      20.69455401 
H       9.74276307      27.06422795      21.82002907 
H      10.75051941      28.51394689      21.52675798 
H      22.23267843      11.83069618      17.36276144 
H      22.09975780      13.26303794      16.31714829 
H      23.06623839      11.85348264      15.77331418 
H      12.61987712      23.60723460      17.20905431 
H      12.23870684      25.33916484      16.94227023 
H      13.94066016      24.75972203      16.88466443 
H      22.49183444      11.95470432      28.06881475 
H      21.32504220      11.54200584      29.37192648 
H      20.75923131      12.36893857      27.87836702 
H      16.51094202      14.97832067      32.54068890 
H      17.36907035      15.64010466      33.96430046 
H      15.57676986      15.69460829      33.89754680 
H      13.43421929      16.20751029      21.26857112 
H      13.88678622      14.74245890      20.32408798 
H      13.86208253      14.69024077      22.11393756 
H      12.76698304      13.94622734      26.54235402 
H      12.78766242      15.53382972      27.38816386 
H      12.51434614      15.46516669      25.61624237 
H      27.75055747      32.64592319      15.90185838 
H      26.95079609      33.88229334      14.86753360 
H      27.21327108      34.18817864      16.61876973 
H      31.82419066      14.12359444      24.80943493 
H      32.11253208      13.62080116      26.50499824 
H      31.68624271      12.39101537      25.27343483 
H      18.28865066      12.93264274      18.00222420 
H      17.98587525      12.67429736      19.74658852 
H      17.78342382      14.30251284      19.04667834 
H      28.79354374      35.22338157      24.84833209 
H      28.83863850      35.03317250      26.62915777 
H      29.54768630      33.77714634      25.58329111 
H      12.05105080      23.38815344      28.85352150 
H      11.17546001      21.82386035      28.96094082 
H      12.79777558      22.00499863      29.71380106 
