699
Properties=species:S:1:pos:R:3 i=90 optimized=T E=-11078.7180026968 pbc="F F F" jobid=279_84-Ag-30_1-000001-PBE
Ag      33.22535042      25.46542578      26.12439799 
Ag      31.83451124      29.46001526      21.75460134 
Au      34.60897785      28.08803916      25.46691594 
Ag      29.95588638      15.21343254      19.82604449 
Au      34.08077867      19.63354778      23.79805953 
Au      27.41505721      23.39061803      12.95521331 
Au      18.20716994      33.26508969      28.09117434 
Au      28.40802247      30.80179515      18.12158781 
Au      24.92254946      21.26533863      23.27749195 
Au      26.29310752      23.29274747      24.95568728 
Au      28.18030819      25.14522094      23.64446651 
Au      23.81958638      21.65348362      29.06038632 
Ag      23.33856601      27.94124375      27.00723196 
Au      26.92523474      23.10402966      21.99694734 
Ag      22.39804785      19.57427754      27.45422158 
Ag      27.23551399      21.16206881      26.78062642 
Ag      22.04115033      21.50679111      22.70765553 
Au      21.01120699      23.54660743      20.86816879 
Ag      27.64801084      25.38426293      26.57427119 
Au      19.93710251      24.05997493      26.66729443 
Au      25.50239747      21.12692186      20.35585070 
Au      24.30212990      25.79461436      28.80406726 
Ag      23.83018512      27.71695513      24.05945356 
Au      26.16887888      27.68292929      27.57907501 
Au      20.94350121      21.93621643      28.44575803 
Au      22.86482266      23.74944539      27.19542725 
Au      21.48768569      21.69377264      25.58197096 
Au      19.58193819      19.82140468      26.86400715 
Au      25.84594207      19.14687317      25.16590690 
Au      25.31603116      23.65930692      30.80099641 
Au      23.00595844      25.30983199      19.60114738 
Au      20.97508772      27.93454328      23.53639529 
Au      26.64789365      27.44917532      24.71687982 
Ag      22.58759577      21.37640001      19.81084781 
Au      21.92025130      25.86922792      25.34958185 
Au      27.17888831      25.57667163      29.47514847 
Au      20.16536343      19.66377878      24.00593190 
Ag      25.90999452      25.08433856      20.17313486 
Au      23.51881471      19.22954309      21.64860791 
Au      22.36981286      23.99557226      30.06787078 
Ag      21.02667371      17.48254813      25.84320756 
Au      21.54363971      27.61549460      20.63097627 
Au      24.39766093      27.43757111      21.22030830 
Ag      24.54416431      23.11203411      18.45687079 
Au      28.60447770      23.22704620      28.44030581 
Au      18.58462907      21.94854635      25.03034881 
Au      26.69327516      21.31839174      29.66959617 
Au      22.34441066      30.05754398      25.11674058 
Au      27.19435067      27.16883194      21.80400490 
Ag      21.85203228      19.78686888      30.36791481 
Au      18.45679030      26.35617451      27.71520340 
Au      23.21135192      21.80447416      31.96371141 
Au      21.59361437      23.39385546      17.89472711 
Au      17.04085988      24.25417491      26.16876748 
Au      27.49758647      22.82518953      19.08759717 
Au      23.86870313      17.25159511      26.36524007 
Au      23.23586881      17.50501038      29.31175917 
Au      25.19007406      29.78223203      25.71121537 
Ag      21.68891367      17.24921476      22.90518565 
Au      28.81900253      18.79115000      25.73962763 
Ag      22.83270140      29.80505087      22.21438391 
Ag      25.32258151      25.36896879      23.06343935 
Au      20.04979747      25.63458116      18.91728551 
Au      29.56176291      27.29417327      25.33286336 
Au      19.33496039      24.30645671      29.59788525 
Au      17.99261489      22.14922374      27.94848647 
Au      19.96669009      28.33567423      29.38166056 
Au      23.76785248      25.94390252      31.67278591 
Ag      20.91291711      26.39201563      31.24334033 
Au      26.41195142      19.04999964      22.18828386 
Ag      24.67938466      19.54393759      30.93658989 
Ag      20.36993962      17.63973376      28.77525419 
Ag      28.89379854      24.90177148      20.72826164 
Au      19.47549942      30.19914532      24.61364315 
Ag      25.72579342      29.57795300      22.77894602 
Au      24.96083703      27.06707433      18.28244359 
Ag      28.46908754      20.80097529      20.92794850 
Au      29.08212558      27.52984679      28.20511505 
Au      30.07186222      20.96456440      27.36324602 
Au      18.13637898      23.85891566      20.29407269 
Au      17.71445824      19.61532456      20.67299535 
Au      25.64933600      27.84592125      30.47263734 
Au      28.17965363      23.52984541      31.32082472 
Au      21.88255807      30.25087451      28.16868602 
Au      21.78620739      24.23838577      32.93213671 
Ag      18.63648929      27.93641993      20.03449112 
Ag      16.32197485      21.93534229      21.61508300 
Au      30.52551578      25.18643238      27.12665925 
Au      23.41586761      23.55087975      24.30342912 
Au      20.00582794      29.97850022      21.61888931 
Ag      16.65054505      20.00902167      26.37984356 
Au      26.77969329      17.08251271      26.97168337 
Au      29.93309019      25.34606289      30.01063961 
Au      17.54847869      28.42228691      25.88428194 
Au      16.18896275      26.31058592      24.28357095 
Au      28.53545035      29.29312778      23.36573773 
Ag      27.82811055      26.92994122      18.96360749 
Au      24.14435522      19.17575564      18.68202842 
Au      27.42623864      16.87004407      24.04743087 
Au      26.98569036      18.80343633      19.22728850 
Au      25.97807113      21.45895610      32.74217244 
Ag      12.57917062      18.79820964      22.00913279 
Ag      23.00955439      21.10788471      16.86519130 
Ag      26.29694588      29.23996320      19.78641161 
Au      19.77789740      19.74288825      32.46069779 
Au      26.12048049      17.27654070      29.88177860 
Ag      29.31697075      18.69899760      22.80701492 
Au      27.58017469      29.77049231      29.23958566 
Au      15.23900130      22.32121538      27.43209252 
Au      26.10124966      20.83101237      17.29103895 
Au      24.56537883      23.97074048      33.59652082 
Au      23.53437713      25.13117997      16.47328091 
Au      17.58168395      17.93950624      28.14123050 
Au      19.03868948      30.43003444      27.54624694 
Au      23.50322685      29.45921106      19.25522119 
Ag      22.44019687      25.59048612      22.46852621 
Au      16.20505429      20.00400839      29.44456021 
Au      27.54832769      19.26103696      31.40997949 
Au      29.07189694      28.99293417      20.54002343 
Ag      16.46239949      24.43154853      29.04227766 
Ag      31.95770854      22.87401268      26.13893228 
Ag      16.63590331      21.62807932      18.74835926 
Au      24.78534168      31.53548640      20.76425680 
Ag      21.91830591      31.75214235      20.25245106 
Au      20.65734431      25.39356237      16.06493137 
Au      24.27770687      31.85561076      23.93944938 
Au      20.59610619      29.64375379      18.77055562 
Au      23.13964945      15.02010014      21.59247841 
Au      30.32903228      22.60379679      19.59137247 
Au      25.07005910      22.87075867      15.52365766 
Ag      18.63379810      23.65580261      17.29786078 
Au      28.94240105      20.63217680      18.01122175 
Ag      17.63490118      22.39665578      30.92014175 
Au      17.09116781      28.66734366      28.74039829 
Au      27.87313664      16.78265073      21.15337606 
Au      15.60769729      26.75843833      27.13881890 
Ag      18.77489955      15.59314483      27.05335731 
Ag      19.63666666      15.44461697      24.04714178 
Au      17.98125525      26.73695558      30.76933774 
Au      20.21355516      15.38442848      21.23589510 
Ag      27.20219010      31.58182574      24.32561328 
Au      24.97480663      15.25998023      28.37834854 
Ag      23.96781987      23.32519194      21.43112180 
Au      20.07204683      21.19975531      16.42629027 
Au      27.85427770      22.71405443      15.93232120 
Au      31.36326719      20.50438003      21.76376252 
Au      26.73439919      31.85259379      27.51606749 
Au      25.73794294      14.95045002      25.23540588 
Au      28.70932027      16.27662284      28.88536065 
Au      26.01004241      14.93061494      22.33718201 
Au      32.54259355      22.69640801      23.32887571 
Ag      25.72836268      30.61417399      31.31310546 
Ag      22.90863431      30.90145912      30.79618454 
Au      24.08458193      16.95478874      31.95840413 
Au      31.28871068      17.84069263      24.78847633 
Au      17.05458771      26.03691266      18.53311336 
Ag      31.56122015      23.06858112      28.94084803 
Ag      29.37831859      15.99530529      26.02971157 
Au      15.50019147      29.23008400      23.91991370 
Au      16.05186232      29.00682426      21.00073405 
Ag      16.94875301      31.18781125      25.59530978 
Au      29.53260032      24.94389922      17.88451312 
Ag      30.77045586      18.09001730      27.69935405 
Au      18.41226680      17.69878986      30.95911955 
Au      23.94779391      19.76364559      33.71097973 
Au      18.10460891      30.78196912      19.69415802 
Au      17.44144041      31.02527236      22.62695186 
Au      14.21651985      27.04866093      22.31002456 
Au      32.64967059      20.08102918      26.42551164 
Au      24.79276379      25.59536832      25.94785865 
Ag      32.85787425      26.93483521      23.18952813 
Au      24.82364964      19.98710110      14.98414567 
Ag      20.01475669      31.02509541      30.25599863 
Ag      31.80987064      27.82785281      27.09548140 
Au      23.89527105      28.63108913      32.54318872 
Ag      29.87861134      15.82826103      23.07358133 
Au      22.32010414      16.98507223      34.48490591 
Ag      14.03749661      19.39869903      27.58349694 
Au      24.04131663      27.92202947      15.62131368 
Au      15.03213200      17.44285312      30.58956853 
Au      25.58988234      25.65023573      14.70086460 
Au      28.95649266      30.55597914      32.28719667 
Au      22.49811474      30.17154838      16.71491986 
Ag      22.04765163      21.85385026      34.76089413 
Ag      31.18529707      28.17488797      30.14832013 
Au      19.18451856      14.03444638      29.49781680 
Au      22.05194844      25.15932269      12.79640405 
Au      15.89549140      14.63574230      27.85995848 
Au      25.57464858      33.79098311      29.43168411 
Au      26.64948632      14.58080494      31.15053369 
Au      28.54951093      13.34699291      24.10438220 
Au      16.22172192      17.08106438      19.43986037 
Au      16.23854267      17.13818836      23.33060450 
Au      20.79685736      15.35398926      17.68664808 
Au      11.87883437      24.51554279      23.08649865 
Au      14.56070130      30.22191857      27.14644729 
Au      24.36180395      21.40539440      26.19911300 
Au      14.98219058      19.80503723      20.27633743 
Ag      25.25313658      31.26639143      17.97056311 
Au      28.67949865      20.27231965      14.47013391 
Au      30.14055918      27.05005510      22.47262208 
Au      31.10215506      25.00243938      24.30860796 
Au      31.77330013      24.87852147      21.49636657 
Ag      20.50723992      23.79003099      23.77197219 
Au      25.34386649      14.85282398      16.06124486 
Au      30.72275122      29.87707781      25.12381502 
Ag      25.74786724      23.45953212      27.85861519 
Ag      26.92274008      27.68459819      16.36244876 
Au      20.79847958      31.50359837      33.15713385 
Ag      17.65702079      24.00336410      23.24661188 
Ag      22.98617601      19.36060425      24.51983005 
Au      27.80493788      20.96721230      23.87720840 
Au      19.57279371      25.88519108      21.93281169 
Ag      24.82370150      30.98066155      14.96829008 
Ag      25.22694227      19.32354130      28.03483674 
Ag      19.02882637      26.10151147      24.80348791 
Au      20.53210551      28.14543785      26.46793697 
Au      21.40423181      26.04883884      28.29113095 
Au      29.10148607      23.10052496      25.56609647 
Ag      19.15690139      21.72256939      22.15900121 
Au      24.53480089      17.08558220      23.48046632 
Ag      22.82632270      28.14940555      29.90829503 
Ag      20.69707444      19.47440206      21.14085723 
Au      20.44403584      22.26624763      31.31304512 
Au      24.73416268      30.09151312      28.71167118 
Au      17.98627687      28.23859336      22.94058128 
Ag      28.18513825      19.05324457      28.61268545 
Au      19.09681803      20.12005846      29.71342482 
Au      29.76544917      22.79908582      22.67491133 
Au      19.59466719      21.58572349      19.23323520 
Au      18.22451716      17.77151810      25.25720998 
Ag      15.71722954      22.11997016      24.55003393 
Au      16.68660087      26.12961870      21.35328205 
Au      26.58980581      24.89420085      17.30402436 
Ag      28.04080191      29.58953601      26.26160955 
Ag      17.17300047      19.86420476      23.50145211 
Au      18.89115145      17.61739899      22.40469897 
Au      30.70288271      20.72286811      24.51241602 
Au      22.11316618      27.39661956      17.67723784 
Au      21.17391583      19.34699002      18.29711242 
Au      22.23736165      17.20356373      19.86230969 
Au      21.95428789      15.48300622      27.64152578 
Ag      18.99094931      24.50854028      32.43245871 
Ag      26.51868414      25.77414023      32.45958699 
Au      14.83200003      24.15059354      22.68152619 
Ag      29.57787922      21.02524100      30.21817576 
Au      23.72892103      32.03307090      26.77154181 
Au      22.51517172      15.20040226      24.82871731 
Au      25.03548217      16.95771566      20.45701786 
Ag      28.45767470      27.83433763      31.17300039 
Au      19.34167588      17.45412845      19.53019688 
Ag      27.66983543      31.26468060      21.49072827 
Au      15.33032385      24.02283036      19.85225645 
Ag      21.23364794      17.25478066      31.51507284 
Au      21.02660599      32.11862917      23.05742128 
Au      14.12215221      24.53272355      25.30786596 
Au      22.34907400      23.02287906      14.84327185 
Au      30.68601420      26.87597509      19.50635464 
Au      18.33138642      19.42142560      17.75009690 
Au      22.91742510      18.13588480      16.40208863 
Ag      15.57994716      17.23187894      26.17595299 
Au      30.26635456      30.08499310      28.02449150 
Au      29.79371503      18.34856258      19.92093747 
Ag      13.71341058      21.46056065      22.62094269 
Au      30.55174837      17.43185717      30.94156402 
Au      26.87046751      15.92960178      18.59213691 
Au      20.67775865      32.29345852      26.33688456 
Ag      19.26796828      27.80913857      17.08983472 
Ag      25.87829200      17.91858151      16.69502862 
Au      14.53431218      19.40969399      24.52609265 
Au      19.12176178      33.46200907      20.82675794 
Au      23.77573099      21.93483741      12.34839377 
Ag      34.48724845      22.49310282      27.60251901 
Ag      28.97813466      32.36435555      29.52456242 
Ag      19.28975270      31.14241855      16.62201557 
Au      23.70050152      15.02885974      18.81728471 
Au      13.72794899      27.02882918      19.34964289 
Au      20.87443785      26.85135284      34.32545737 
Au      19.46287271      28.69944301      32.14372627 
S      20.52593907      15.84068828      33.48826942 
S      28.35333733      32.69458148      19.56208451 
S      23.98022925      23.02186909      35.77207293 
S      24.08979557      18.16179777      35.51663568 
S      12.42982870      18.09773210      24.29935807 
S      32.33975481      17.19594632      29.42692722 
S      31.57209505      14.78829294      21.58540369 
S      29.90659094      19.26741134      16.21159852 
S      28.26150432      22.09622853      33.31470596 
S      22.96073445      27.94705916      34.69955266 
S      13.49531023      30.04726862      25.05288086 
S      16.38074321      18.02826792      17.25782353 
S      32.68214751      23.27996933      19.87290661 
S      26.92178251      30.81985307      33.45954349 
S      22.88919460      32.48672812      32.73044789 
S      17.11843559      31.59618900      17.61438123 
S      11.34180173      22.23044437      22.86877240 
S      25.00951944      13.32348341      26.89949030 
S      33.95954634      29.07548227      27.49792015 
S      28.68991114      26.58957900      33.34337516 
S      23.78136570      24.15532058      11.53386695 
S      27.40898461      25.74469092      13.11769068 
S      19.26513172      33.39134080      30.19814593 
S      28.94972363      17.68767250      32.66350034 
S      21.27871457      33.95476468      24.65928015 
S      31.03386464      32.37836475      28.08451354 
S      28.82226830      29.26706127      16.35540004 
S      33.53181193      17.34340377      23.93480717 
S      34.83322823      21.86924757      23.61190720 
S      19.23414679      13.57266913      25.59853646 
S      20.82620434      33.75071560      19.21881788 
S      12.65352780      19.45103528      19.68818996 
S      18.72526348      30.47896377      33.63473073 
S      31.80502915      31.24560288      23.44491567 
S      35.30785195      27.20478398      23.39572940 
S      31.18223690      30.23292579      31.56997311 
S      23.06127261      13.31173603      23.34116998 
S      32.05967388      19.22842422      19.79473034 
S      28.77890646      14.69545580      17.75678677 
S      15.48631416      30.44333959      29.30827002 
S      31.72848022      21.86709413      31.12631988 
S      20.28489445      26.32286599      13.82680677 
S      17.05144983      26.97460415      16.29576311 
S      27.38191430      12.91404945      22.09312758 
S      16.85597400      33.60157620      26.18059287 
S      15.29481918      21.57733670      31.11672054 
S      21.16935668      16.60809676      15.69286539 
S      24.66121463      29.04706877      13.53503853 
S      20.11379004      22.11927975      14.19627182 
S      21.16697480      31.40862348      15.10145577 
S      23.58792472      34.03707474      28.17730570 
S      13.35919881      17.40826388      28.93241843 
S      24.29050236      33.53020027      22.15115485 
S      27.61523787      21.07891651      12.51611426 
S      16.31556884      22.95287489      16.66150944 
S      26.13781510      16.52263844      14.61261301 
S      16.87041624      14.11397914      29.94387448 
S      28.54017108      14.01638189      29.85509183 
S      27.49330551      33.86875500      30.79612193 
S      32.65850836      28.32586772      19.72980007 
S      24.93979225      14.79937494      32.75851609 
S      14.27147032      29.32441743      19.34566077 
S      13.42770208      25.68224202      27.35144106 
S      34.61399842      20.08240056      27.86188651 
S      30.19537464      23.54672984      15.99305688 
S      18.73829525      25.82083022      34.54471795 
S      35.22971171      24.76667807      27.38987580 
S      19.84450247      20.75070029      34.65458297 
S      32.25439040      25.89704247      30.45380595 
S      23.69550891      19.63417686      12.86558321 
S      17.28080351      33.44071498      22.31049454 
S      15.64317901      26.04585544      30.79714641 
S      11.93547655      26.88180706      23.15099945 
S      24.49128080      13.17241229      17.48827691 
S      13.08028395      24.76135854      19.18406170 
S      21.48912389      13.67480290      29.23080216 
S      16.48942218      17.39542959      32.44746041 
S      15.78870657      15.75832146      21.37133678 
S      14.72126605      14.89023809      25.83810971 
S      25.22446208      32.99888180      16.21776156 
S      29.83704807      13.53955403      26.06682726 
S      20.18745143      13.76948313      19.35841095 
S      27.13872601      33.57903653      25.79667869 
S      12.91938325      21.64576825      27.26655015 
C      21.12741724      14.12845820      33.21231107 
C      30.12852920      33.07662260      19.85308140 
C      23.30746663      24.40263311      36.77904544 
C      23.42980536      18.98741648      37.01691387 
C      11.04632981      19.07342568      25.00833268 
C      32.51199882      15.39834094      29.09760178 
C      31.53085617      12.95313808      21.70693811 
C      31.59291263      19.95478247      15.99570272 
C      28.12134666      23.15499402      34.80111345 
C      22.59278279      29.43533577      35.70074290 
C      13.26237998      31.77230936      24.46870747 
C      17.01835234      16.67314847      16.19516585 
C      33.19431702      24.25486122      18.41198232 
C      26.83154356      32.53519454      34.09991819 
C      22.53728621      34.16695601      32.07987404 
C      17.06216885      33.43346469      17.59579975 
C      10.58598454      22.18558153      21.19426429 
C      26.44364988      12.27914194      27.35087814 
C      34.97760025      28.26835853      28.79331473 
C      28.34328292      27.68216944      34.77905370 
C      23.05075314      24.01759717       9.85205649 
C      26.73393061      26.40049957      11.54589856 
C      17.83154679      33.47549715      31.34547481 
C      29.81284116      18.67630247      33.94688270 
C      19.87931290      35.11944056      24.46249880 
C      32.57894829      32.43679864      29.06712207 
C      28.67412626      30.25601159      14.81482199 
C      34.45751891      16.68489439      25.37491138 
C      35.64229648      21.99259183      21.96985092 
C      17.66180513      12.79267189      25.05983904 
C      21.76331933      35.24184590      19.73578261 
C      12.59565931      17.92462394      18.66771334 
C      18.80397958      29.85700775      35.35840281 
C      33.52459454      31.54334583      24.00920126 
C      35.80080561      28.64587167      22.36633373 
C      32.02389066      29.69492837      33.11408130 
C      21.57843251      12.30158525      22.98747715 
C      33.21751939      17.89992199      20.28881312 
C      28.34857874      12.91930067      17.94614041 
C      14.26885310      29.66397467      30.43911926 
C      32.98883802      20.53998120      31.05970978 
C      18.77191739      25.51179090      13.18211893 
C      15.82566981      28.33094333      16.19736456 
C      26.29588368      11.48151508      22.45774827 
C      15.23368288      34.03294635      26.92746544 
C      15.16620680      20.72595592      32.73655388 
C      21.90927377      15.44238542      14.48823898 
C      23.09458107      29.23847143      12.59920195 
C      20.25579067      20.68822314      13.06264961 
C      21.57108419      33.18938073      15.31329005 
C      23.99612633      35.41186057      27.03519663 
C      11.85367057      18.02333173      29.79341107 
C      25.84381491      34.49377096      22.23857361 
C      28.94483604      20.98178952      11.24915844 
C      16.35252546      21.72837889      15.29491949 
C      27.92076417      16.16666229      14.36869193 
C      16.46166101      12.33244158      30.16192438 
C      29.82761594      13.72719639      31.13075085 
C      28.14302786      35.56387109      30.50259798 
C      32.54712070      29.56192908      18.37511713 
C      25.89946742      15.13629900      34.28669613 
C      12.92728012      30.16759795      20.26688473 
C      12.13997553      26.91131337      26.92007477 
C      36.13666040      19.69339666      26.90819018 
C      30.55024881      24.67892443      14.59821001 
C      18.94522513      24.63760499      35.93539617 
C      36.56882789      24.63324552      26.13466990 
C      19.77451143      19.40118162      35.89171162 
C      32.44128489      25.56016390      32.24811197 
C      24.85483446      18.78689111      11.72873547 
C      15.80744585      33.67684416      21.24181568 
C      15.35914169      25.22291962      32.40776035 
C      10.75696542      27.34300645      21.82126778 
C      23.04835054      12.40853210      16.65129792 
C      12.93032576      24.43285557      17.38563030 
C      21.55472263      12.14661113      28.21915129 
C      16.45773130      15.71473410      33.17169079 
C      13.99609917      15.38505841      21.33167765 
C      12.94263120      14.84382637      26.28789130 
C      26.94091187      33.55199128      15.86645720 
C      31.57397740      13.29135366      25.52237687 
C      18.41281629      13.41749837      19.04461366 
C      28.85885116      34.19897372      25.92573003 
C      12.18268565      22.12733759      28.87515509 
H      22.15979359      14.11690928      32.84757330 
H      21.05960681      13.57701266      34.15680715 
H      20.47029897      13.67082415      32.46184922 
H      30.58542466      33.40301055      18.91253310 
H      30.17017320      33.89295280      20.58416956 
H      30.66691107      32.21039575      20.25396016 
H      24.13902898      25.05182663      37.07685437 
H      22.57446485      24.99230843      36.21714124 
H      22.83773864      23.97360018      37.67202654 
H      23.24772411      18.22193630      37.77989636 
H      24.19581905      19.69034547      37.36479194 
H      22.50740015      19.53625438      36.80408559 
H      11.15559094      19.07259208      26.09956387 
H      11.04940636      20.10627062      24.64393496 
H      10.10790194      18.58184114      24.72660310 
H      33.28759556      15.28827853      28.32983189 
H      32.83483867      14.89223907      30.01412197 
H      31.57288467      14.96617389      28.73484222 
H      30.51509494      12.58165702      21.88001908 
H      31.92875094      12.53087484      20.77744861 
H      32.17259869      12.65083137      22.54297780 
H      31.55694127      21.04205942      15.86223998 
H      32.15841684      19.70847169      16.90339320 
H      32.05057960      19.47546869      15.12290178 
H      28.01522282      22.49809642      35.67231983 
H      29.03779094      23.75174146      34.87597723 
H      27.25313966      23.82207306      34.72953083 
H      21.93903806      30.13371227      35.15945201 
H      22.12473573      29.12340755      36.64141980 
H      23.55013783      29.92727868      35.91135587 
H      12.54772282      32.27273008      25.13187277 
H      14.21217752      32.31760257      24.45431514 
H      12.85076666      31.72021884      23.45363065 
H      17.21822574      17.09789328      15.20429257 
H      17.94282547      16.24661797      16.60074431 
H      16.24388413      15.90145666      16.11935471 
H      32.43084519      25.00056953      18.15301789 
H      34.13898728      24.75668895      18.65170315 
H      33.33336765      23.56098081      17.57453155 
H      27.09322112      33.26354836      33.32537781 
H      25.79672697      32.69900863      34.42489390 
H      27.51054729      32.62328249      34.95531596 
H      21.71488937      34.15472086      31.35648269 
H      22.28666409      34.81881426      32.92417017 
H      23.45398965      34.52009097      31.58957397 
H      16.17259619      33.75831398      18.14773326 
H      17.95746111      33.86848973      18.05368652 
H      16.97968530      33.75853232      16.55214308 
H      11.22012328      22.69270307      20.45948128 
H      10.46532764      21.13354481      20.90845793 
H       9.60654198      22.67420142      21.24205666 
H      27.34223995      12.87302562      27.53978895 
H      26.18141777      11.71940477      28.25660827 
H      26.62924246      11.58728533      26.52035373 
H      35.98678906      28.69369846      28.75587244 
H      34.51341668      28.49568014      29.76073943 
H      35.02199135      27.18251346      28.65296900 
H      28.30972593      27.05558670      35.67833700 
H      29.14895944      28.41972130      34.87452429 
H      27.39416445      28.21388559      34.66459423 
H      22.92130937      25.03149361       9.45609179 
H      23.75557461      23.46065765       9.22416235 
H      22.08665649      23.50224636       9.87611831 
H      25.87073549      25.81330275      11.21628333 
H      26.43148207      27.43868686      11.73087637 
H      27.53302945      26.36272886      10.79654788 
H      18.21649717      33.35106637      32.36520692 
H      17.35743436      34.45788241      31.24302195 
H      17.10369198      32.68629364      31.13130042 
H      30.61045688      18.06172850      34.37910552 
H      30.22434950      19.60106668      33.52859817 
H      29.07337800      18.92498294      34.71739815 
H      18.91417614      34.60552274      24.43433575 
H      19.89853819      35.81216208      25.31229968 
H      20.03166451      35.66891118      23.52548461 
H      32.42783330      32.03952446      30.07605184 
H      33.34677820      31.85174101      28.54663884 
H      32.88378538      33.48932837      29.12078723 
H      29.42945615      31.04961007      14.82111549 
H      28.86503631      29.57580709      13.97591702 
H      27.67221120      30.69079755      14.70495977 
H      34.13821980      15.64493395      25.51424743 
H      35.52856647      16.71145587      25.14411465 
H      34.24736597      17.26364234      26.28100800 
H      34.95800749      21.69458813      21.16897174 
H      35.92920562      23.04198361      21.83018846 
H      36.53549799      21.35809701      21.97111085 
H      17.13957354      12.39159644      25.93667904 
H      17.00378569      13.50765465      24.55628816 
H      17.90797913      11.97571984      24.37091102 
H      22.59791945      35.35299691      19.03243118 
H      21.11102784      36.11966189      19.67680618 
H      22.16081380      35.12686553      20.74969967 
H      12.85702371      18.20016198      17.63946963 
H      13.30863689      17.17286611      19.02372540 
H      11.57532863      17.52602252      18.70042928 
H      18.81799571      30.71527405      36.03939315 
H      17.90118626      29.25769524      35.52551754 
H      19.68421864      29.22417045      35.51541063 
H      34.01345621      30.61190109      24.32446589 
H      34.08542815      32.00256883      23.18658514 
H      33.48697158      32.23380729      24.86011665 
H      35.90052424      28.28449537      21.33601402 
H      35.04776300      29.43943975      22.39188868 
H      36.76339852      29.02742217      22.72406812 
H      31.55894372      28.79139192      33.52198816 
H      33.07151267      29.48789708      32.86425568 
H      31.97727064      30.50544956      33.84979887 
H      21.33765828      11.72984946      23.89136152 
H      20.72413891      12.93580857      22.71880206 
H      21.81788274      11.62654243      22.15767319 
H      33.35745523      17.23818749      19.42567629 
H      34.17107814      18.36767176      20.56281043 
H      32.84110156      17.31621833      21.13336126 
H      27.56088202      12.67195090      17.22440309 
H      29.25008573      12.33375046      17.72999088 
H      27.99965865      12.70015671      18.96058663 
H      13.35183454      30.26342732      30.43690022 
H      14.05730588      28.63013737      30.14765448 
H      14.71603550      29.66875385      31.44064636 
H      32.82691297      19.86254844      31.90665756 
H      32.93305947      19.96702113      30.13015648 
H      33.98271071      20.99599751      31.13691325 
H      18.85394325      24.42147540      13.24774910 
H      17.93306036      25.86310735      13.79615829 
H      18.63721310      25.82418247      12.14031445 
H      15.96362633      29.07283115      16.98875966 
H      15.95628799      28.81717896      15.22268356 
H      14.81839141      27.90359339      16.26754412 
H      26.92461383      10.60682775      22.65777359 
H      25.64001169      11.68916522      23.30931761 
H      25.68422779      11.30578907      21.56445666 
H      14.52796928      34.20447133      26.10568224 
H      14.85981535      33.22668991      27.56844254 
H      15.34363852      34.95581421      27.50734909 
H      14.85685942      21.47519747      33.47561767 
H      14.40904699      19.93586023      32.66861298 
H      16.12033566      20.28321182      33.03872233 
H      22.09446114      16.00618006      13.56585498 
H      22.85919816      15.03194889      14.85757018 
H      21.19263159      14.63669632      14.29167808 
H      22.33446890      29.75925585      13.19234922 
H      23.31961403      29.82022965      11.69728438 
H      22.73356691      28.24044123      12.32014453 
H      19.24284642      20.30846557      12.88237308 
H      20.70067007      21.03539749      12.12202033 
H      20.88021409      19.89673950      13.48742416 
H      22.58912982      33.36742295      14.94702154 
H      20.85171170      33.76152922      14.71554646 
H      21.50096507      33.49013251      16.36426503 
H      24.00035800      36.34463965      27.61056741 
H      24.97103427      35.24906428      26.56104738 
H      23.20874811      35.44024400      26.27140672 
H      11.56598122      17.30164410      30.56625330 
H      12.02810688      19.00320275      30.24809220 
H      11.05208749      18.10209746      29.04917440 
H      25.96193088      35.03607211      21.29325006 
H      25.76181354      35.19635905      23.07607634 
H      26.70956261      33.83772765      22.39783906 
H      29.85071133      21.49712907      11.58006991 
H      29.16344600      19.92255444      11.07079478 
H      28.56799450      21.44346264      10.32936191 
H      15.40519513      21.17740792      15.28912213 
H      16.47019411      22.27372431      14.35106583 
H      17.18555747      21.02533248      15.41638623 
H      28.39325105      15.83752825      15.30127988 
H      28.01819028      15.38599364      13.60578925 
H      28.39431753      17.09389560      14.02136502 
H      15.37383796      12.25099816      30.26806077 
H      16.79785711      11.73673343      29.30866189 
H      16.95062923      11.98199986      31.07818052 
H      30.75251430      13.45410064      30.60948083 
H      29.99552102      14.62383754      31.73786951 
H      29.50518510      12.89360957      31.76468061 
H      28.28047114      35.76188151      29.43554084 
H      27.44334939      36.29249644      30.92743790 
H      29.10884769      35.63873815      31.01626663 
H      32.78747872      29.05822860      17.43152136 
H      31.54186038      29.99265449      18.30588666 
H      33.28183639      30.35228828      18.56799406 
H      26.62720034      15.93871709      34.12821714 
H      25.18880397      15.42767898      35.06912303 
H      26.41609416      14.21260045      34.57118814 
H      12.80673523      29.73913929      21.26726126 
H      13.20457688      31.22561272      20.34777552 
H      11.99614559      30.07273693      19.69676312 
H      12.36933915      27.43609551      25.98828664 
H      11.19027117      26.37367380      26.81064335 
H      12.06969974      27.63209916      27.74360093 
H      36.10544274      20.12274854      25.90098309 
H      36.99109320      20.09882663      27.46252530 
H      36.23421590      18.60402287      26.83868748 
H      29.86489126      25.53149744      14.58564367 
H      31.58161979      25.03353999      14.71460624 
H      30.45026782      24.12100800      13.65911055 
H      19.75452096      23.92509845      35.73979561 
H      19.14623324      25.19633292      36.85585122 
H      18.00216486      24.08730668      36.03753903 
H      36.78604772      25.63986226      25.75700666 
H      37.45871089      24.21884536      26.62173446 
H      36.27183300      23.98980518      25.29959413 
H      19.89923783      19.83792947      36.88973924 
H      18.78977062      18.92429268      35.82276317 
H      20.55348643      18.64687756      35.70809954 
H      32.47990490      24.47214739      32.38661120 
H      33.38337721      26.01413305      32.57827788 
H      31.59993501      25.97614319      32.81439020 
H      25.79923800      19.33526593      11.65201271 
H      25.03628848      17.78505040      12.13744386 
H      24.37169231      18.71651080      10.74736804 
H      14.92097578      33.57714771      21.87982023 
H      15.84225972      34.68565106      20.81487465 
H      15.77640278      32.92714312      20.44421289 
H      15.56138063      25.92998795      33.21962334 
H      14.30707944      24.91268039      32.43128018 
H      15.99633650      24.33604764      32.51955728 
H      11.05646366      26.91415182      20.85870965 
H       9.76164500      26.98241307      22.10490375 
H      10.74365174      28.43716454      21.75205799 
H      22.57142837      11.73741624      17.37545999 
H      22.32230259      13.16445170      16.33409205 
H      23.40894391      11.83609861      15.78925542 
H      12.70584190      23.36522247      17.27267981 
H      12.10381959      25.03303497      16.98954507 
H      13.86375622      24.65927192      16.86008330 
H      22.59011981      12.03696630      27.87262263 
H      21.27715107      11.30048973      28.85771891 
H      20.87724432      12.22000088      27.35983667 
H      16.48561325      14.94989751      32.38908278 
H      17.33976293      15.62367850      33.81754407 
H      15.54197454      15.61878179      33.76662892 
H      13.38977208      16.30124701      21.34135212 
H      13.77624930      14.79749376      20.43294116 
H      13.76944290      14.79352595      22.22694589 
H      12.63523503      13.79728118      26.39216805 
H      12.75605380      15.39064798      27.21826930 
H      12.39144767      15.32168983      25.46878318 
H      27.67332398      32.76863827      16.09181930 
H      27.01630654      33.84991536      14.81509302 
H      27.14455227      34.41507039      16.51121161 
H      31.84279270      13.97890387      24.71238694 
H      32.21399620      13.47867880      26.39318499 
H      31.70213559      12.25405833      25.19387832 
H      18.32457619      12.89620203      18.08467106 
H      18.05853953      12.76734475      19.85356615 
H      17.81793500      14.33775630      19.03403105 
H      28.99165781      34.95086264      25.13792003 
H      29.00681450      34.66509483      26.90660934 
H      29.59142786      33.39712969      25.79239219 
H      12.03285734      23.21405171      28.87068098 
H      11.21496186      21.61985529      28.96917252 
H      12.83605340      21.85264626      29.71213985 
