699
Properties=species:S:1:pos:R:3 i=77 optimized=T E=-11078.7097169428 pbc="F F F" jobid=279_84-Ag-30_1-000009-PBE
Au      33.13402295      25.52077629      25.94975667 
Ag      32.08925198      29.18934931      21.24211602 
Au      34.49004100      28.26535445      25.21742116 
Au      29.93405848      14.96893070      19.70252237 
Au      34.02392181      19.50853493      23.74772586 
Au      27.59353676      23.55317320      13.02724956 
Au      18.11458486      33.20320993      28.09254309 
Au      28.52378262      30.82013483      18.19446219 
Ag      24.91753119      21.22826344      23.30198999 
Ag      26.27055649      23.23745445      24.97685880 
Au      28.17490936      25.07264484      23.66292579 
Au      23.75388290      21.59139201      29.08631653 
Au      23.36228474      27.92443130      27.02853124 
Au      26.86576177      23.04927379      22.05951004 
Au      22.35804371      19.51707073      27.40038259 
Au      27.23185201      21.15327064      26.77303730 
Au      22.04229647      21.48666958      22.74322549 
Au      21.00160190      23.57686596      20.83668515 
Au      27.63290637      25.27592622      26.59694054 
Ag      19.95272118      24.00065081      26.70791935 
Au      25.47401015      21.06505981      20.38455036 
Au      24.25784015      25.71591343      28.84625873 
Au      23.85575549      27.75893488      24.14829796 
Au      26.19609709      27.63678063      27.64003770 
Ag      20.84346055      21.87899297      28.44631503 
Au      22.83395268      23.68276204      27.23607966 
Au      21.45094810      21.65357708      25.62191015 
Au      19.44713349      19.80525758      26.92794912 
Au      25.82897620      19.09700382      25.11088679 
Ag      25.18087491      23.58286191      30.82827605 
Au      22.97674435      25.36955342      19.59999445 
Au      20.96577831      27.97999063      23.58085409 
Au      26.66591903      27.41504758      24.79526835 
Au      22.57146110      21.34085260      19.84429909 
Au      21.91696292      25.85465381      25.39186315 
Au      27.14798839      25.49384556      29.54195816 
Au      20.11447318      19.60479585      24.04523587 
Au      25.86952905      25.07174416      20.23104431 
Au      23.52584242      19.19669386      21.70301554 
Au      22.26055288      23.89544549      30.11969879 
Au      21.06939981      17.44962700      25.80521305 
Au      21.52131261      27.68592329      20.63287436 
Au      24.38529232      27.45701729      21.29847087 
Au      24.52362674      23.12450968      18.54907200 
Au      28.57454615      23.19941315      28.49688723 
Ag      18.58844775      21.89572245      25.08349357 
Au      26.66311513      21.24690211      29.71796030 
Au      22.44875167      30.14240469      25.17645897 
Au      27.23330020      27.14415258      21.87342344 
Au      21.70841073      19.69024737      30.19623472 
Au      18.46310907      26.32821106      27.70185058 
Au      23.03372713      21.68398205      31.95441942 
Ag      21.60859771      23.37846216      17.91071092 
Ag      17.05611939      24.27045218      26.12714661 
Au      27.49694294      22.82293330      19.11780758 
Ag      23.93425851      17.16345077      26.34575415 
Au      23.25459288      17.41907172      29.27995599 
Ag      25.26729851      29.83302114      25.83889871 
Au      21.64683464      17.24232242      22.88460669 
Au      28.80969623      18.83560837      25.74324786 
Au      22.87074225      29.88472959      22.31037545 
Au      25.29795642      25.32945956      23.12172260 
Ag      20.09285034      25.63568732      18.95835379 
Au      29.53870008      27.16565645      25.36580759 
Ag      19.31661609      24.25624070      29.58282867 
Au      17.96120925      22.14431534      27.91103607 
Au      19.94586571      28.32541728      29.36025515 
Au      23.63371726      25.85196256      31.71637056 
Au      20.85306045      26.29568863      31.22806867 
Au      26.38591511      18.99971012      22.18264484 
Ag      24.60181214      19.45446168      30.95323160 
Au      20.28101860      17.57059294      28.69532102 
Ag      28.86930404      24.86526841      20.77520561 
Ag      19.56703144      30.29275192      24.66412041 
Au      25.75585876      29.61172830      22.87951626 
Au      24.94671551      27.17933248      18.33308813 
Au      28.48834875      20.78187548      20.93515053 
Au      29.08267374      27.45706699      28.27182979 
Au      30.09080664      20.96984764      27.37574069 
Ag      18.15632967      23.83625527      20.28081859 
Au      17.72241701      19.63380330      20.56036228 
Au      25.60801728      27.71748614      30.50007654 
Au      28.05134327      23.50995684      31.40493951 
Au      21.87150406      30.26898160      28.13038822 
Ag      21.66543044      24.08781555      33.00835528 
Au      18.69396114      27.98978156      20.08499291 
Au      16.28505014      21.88153365      21.65544131 
Au      30.53098441      25.11214249      27.17526791 
Ag      23.38120404      23.49936743      24.36388983 
Ag      20.08503385      30.04617012      21.68298467 
Ag      16.53788656      19.99661161      26.41575340 
Au      26.80204798      17.07201948      26.94675739 
Au      29.91958724      25.27595953      30.12060944 
Au      17.64729389      28.43196562      25.87631185 
Au      16.28147956      26.33838987      24.21069596 
Au      28.58855432      29.22217840      23.49031605 
Au      27.83957971      26.90398687      19.02947819 
Au      24.13441191      19.07885723      18.69504503 
Au      27.41536465      16.81015249      23.98342279 
Au      26.99519059      18.80977511      19.21936303 
Au      25.82286505      21.40843856      32.71678189 
Ag      12.60333080      18.87498396      21.90135574 
Au      23.12662711      21.12803339      16.92771620 
Au      26.34930250      29.22662091      19.90569204 
Au      20.26481813      19.65272413      32.53986106 
Au      26.14339287      17.22013191      29.87206742 
Au      29.26577538      18.70306796      22.80254127 
Au      27.58097249      29.69960239      29.28015424 
Au      15.17317014      22.40025964      27.36402404 
Au      26.13204659      20.86964497      17.33790095 
Au      24.40784076      23.90521421      33.63535648 
Ag      23.61003582      25.20081671      16.65295950 
Ag      17.40239581      17.85811533      28.23191730 
Ag      19.04626164      30.47471703      27.56996578 
Au      23.50840777      29.54616069      19.42636995 
Au      22.43009426      25.61430527      22.49288253 
Au      16.04114778      20.13058925      29.29168898 
Ag      27.48333346      19.19999876      31.52101066 
Au      29.15991667      28.96947567      20.59410148 
Au      16.48115331      24.37444059      28.96341556 
Ag      32.04347251      22.85729297      26.10544331 
Au      16.69991894      21.58988354      18.75139885 
Ag      24.94350577      31.59189006      20.86126386 
Ag      22.02262035      31.81815522      20.36615855 
Au      20.72656585      25.39312943      16.11283312 
Ag      24.29220098      31.99600917      23.94354910 
Ag      20.64618455      29.79857445      18.78785749 
Au      23.19239460      15.03331376      21.64159279 
Au      30.35654795      22.59288369      19.61031153 
Au      25.09304270      22.98846256      15.61222619 
Au      18.81584945      23.65362734      17.27387528 
Au      28.96524084      20.61604482      18.03360284 
Ag      17.49183594      22.38417068      30.94436494 
Au      17.14862319      28.66438270      28.74564394 
Au      27.92272797      16.74797970      21.08069388 
Ag      15.60619716      26.80063875      27.07357757 
Au      18.86893486      15.61508574      27.15006217 
Ag      19.58990129      15.51522806      24.03819608 
Au      17.99327197      26.64498572      30.79359184 
Ag      20.25736437      15.34932423      21.18465441 
Au      27.21338146      31.55338233      24.34384734 
Au      24.93379433      15.22516904      28.33601443 
Ag      23.94079663      23.30826029      21.47859883 
Au      20.22603726      21.12477362      16.29603515 
Ag      27.94933956      22.75855870      15.97833772 
Ag      31.42721377      20.34710334      21.77660892 
Au      26.91577149      31.81032831      27.55528755 
Au      25.82075747      14.92794362      25.21005762 
Au      28.73188971      16.25986134      28.87848548 
Ag      26.08181067      14.81958966      22.25174482 
Ag      32.59251094      22.64519762      23.28156496 
Au      25.76334502      30.40196625      31.46346846 
Au      22.95717013      30.85794190      30.82313658 
Au      24.18908473      16.81169124      31.94380884 
Ag      31.30749450      17.90673701      24.73191056 
Au      17.13617272      25.98667831      18.59311025 
Au      31.53035988      23.03339656      28.87026966 
Ag      29.38514818      16.02542091      25.97805885 
Au      15.52051962      29.16070853      23.97655732 
Au      16.08071747      28.94775907      21.09417173 
Ag      16.93622653      31.13193240      25.63731047 
Au      29.39305785      24.87998828      17.87616902 
Au      30.72489374      18.07061415      27.63533326 
Au      18.60976346      17.48975763      30.89020524 
Au      23.82528735      19.72523570      33.73908157 
Ag      18.05286590      30.78103521      19.81926874 
Au      17.50745620      31.01009604      22.69986223 
Au      14.14594922      27.01251286      22.42656959 
Au      32.63144034      20.03922596      26.39531199 
Au      24.77572505      25.54058807      25.97966034 
Ag      32.89790911      26.74809018      23.12021885 
Au      25.00319749      20.20930748      14.91853719 
Ag      20.09938408      30.95020638      30.32561258 
Au      31.70567579      27.84870973      27.16768678 
Au      23.79317743      28.55183233      32.60112795 
Ag      29.92632640      15.92034097      22.98694258 
Au      22.44801543      16.91504724      34.51315544 
Au      13.37634372      19.43409056      28.20490412 
Au      24.10013746      27.89121746      15.62567987 
Au      15.26662961      17.53194415      30.74160043 
Au      25.71977141      25.63635062      14.75306245 
Ag      28.79521794      30.63967043      31.95897030 
Au      22.73218081      30.21318847      16.83579875 
Au      21.78665272      21.71668589      35.02220732 
Ag      31.17111202      28.17098169      30.23261242 
Au      19.36822664      14.03320469      29.61859126 
Ag      22.96382087      25.63957750      13.81062467 
Au      16.04612114      14.81022508      28.25601501 
Au      25.76972346      33.96786148      29.25597488 
Au      26.77571120      14.55235749      31.21342429 
Ag      28.42418559      13.57836615      24.08514791 
Ag      16.31828302      17.20406893      19.49835914 
Au      16.24288800      17.06960942      23.31876872 
Ag      20.64072389      15.20853916      17.87168731 
Ag      12.02644939      24.58427107      23.12034503 
Au      14.51249739      30.16410675      27.12768715 
Au      24.33856352      21.36776600      26.17489919 
Au      14.94172134      19.86118913      20.10457560 
Ag      25.46611757      31.07803116      17.99780863 
Au      28.73552218      20.36673428      14.46647289 
Ag      30.14454765      27.01029978      22.45005111 
Au      31.03947884      24.90343605      24.20950356 
Ag      31.71218135      24.76379937      21.41769639 
Au      20.51900795      23.77422071      23.80695950 
Ag      25.11550095      15.05951310      16.13488855 
Ag      31.35463729      29.00648048      24.34522870 
Au      25.71114609      23.40607531      27.89869239 
Ag      26.95495182      27.77138603      16.44745936 
Au      20.71646814      31.45008802      33.20089566 
Au      17.70079783      23.94283419      23.23123597 
Ag      22.98755400      19.31432045      24.53465166 
Au      27.77782962      20.98347359      23.87927285 
Ag      19.56871856      25.89576032      21.92391606 
Au      25.02226663      31.08322123      14.97559095 
Au      25.20847285      19.28441837      28.03027612 
Au      19.06415675      26.05368986      24.82412557 
Au      20.52583022      28.19150120      26.48164811 
Au      21.37904398      25.98830449      28.28288450 
Ag      29.15758594      23.05276267      25.56488822 
Au      19.16799285      21.70676514      22.14421426 
Ag      24.55427440      17.01505981      23.46864928 
Au      22.80305004      28.14245914      29.90625173 
Au      20.66893753      19.49676722      21.09248395 
Au      20.26930229      22.17584805      31.27866994 
Au      24.79497686      30.11635960      28.76130778 
Au      18.08780539      28.28498718      22.96592067 
Ag      28.15366344      19.02267659      28.66450695 
Ag      18.86192646      20.08902588      29.77966210 
Au      29.79143891      22.76642923      22.64199161 
Ag      19.63958324      21.52699858      19.14675710 
Au      18.16861729      17.75388328      25.29701182 
Ag      15.70901130      22.11637724      24.53999233 
Ag      16.68195916      26.11434376      21.33778493 
Ag      26.53363066      24.91832730      17.36895426 
Ag      28.12870957      29.51175660      26.32507673 
Ag      17.20079124      19.82629172      23.51633957 
Au      18.82629675      17.62671547      22.31654177 
Au      30.69746746      20.75097826      24.49299553 
Au      22.12129471      27.49613902      17.72649095 
Au      21.19414737      19.31023799      18.16686986 
Au      22.20786809      17.17240332      19.93559375 
Au      21.93425138      15.39958827      27.57850283 
Ag      18.91799224      24.39927521      32.44812980 
Au      26.31903712      25.69624316      32.59350780 
Au      14.89329903      24.20508267      22.69733386 
Au      29.46158080      20.97129879      30.28231842 
Au      23.78496367      32.08614480      26.84961681 
Au      22.48049579      15.16992967      24.78900143 
Au      25.04860865      16.94421866      20.52092037 
Ag      28.41719078      27.72277943      31.16949656 
Au      19.34081379      17.45889362      19.47609825 
Ag      27.77183969      31.24382664      21.58399158 
Ag      15.32834971      23.99169975      19.84268855 
Au      21.36402701      17.09180795      31.43543232 
Ag      21.27947975      32.18292096      23.19622700 
Au      14.19051560      24.67705290      25.34045082 
Ag      22.30923501      23.03116199      14.91546859 
Ag      30.67544323      26.81719586      19.51661712 
Ag      18.37874401      19.34818978      17.57351833 
Au      22.86085230      17.27037452      17.02637765 
Au      15.40736720      17.43946077      26.08533287 
Ag      30.22075781      30.08746044      28.22416151 
Ag      29.88345790      18.38855333      19.89211974 
Au      13.63694526      21.62293292      22.54710142 
Au      30.45843998      17.46217195      31.01471780 
Au      26.78545392      16.00238969      18.54326814 
Au      20.82245873      32.30141200      26.37337921 
Au      19.32313105      27.88430835      17.20870581 
Ag      25.78323676      18.02050654      16.64013319 
Au      14.51266520      19.48425501      24.33457694 
Au      19.17744431      33.40967292      20.79816860 
Au      23.84294271      22.24322374      12.46895861 
Au      34.67268379      22.65646707      27.48353060 
Au      29.31466264      32.99011724      29.20367175 
Au      19.24839692      31.18457337      16.57670228 
Ag      23.73259434      15.04507585      18.82671673 
Au      13.83325567      26.96526522      19.39307310 
Au      20.92519453      26.71781791      34.42280201 
Au      19.48910455      28.52996984      32.23564112 
S      20.72028350      15.75587230      33.41985685 
S      28.43729980      32.68370156      19.67212931 
S      23.74462666      22.84056270      35.75159118 
S      24.14936112      18.15708109      35.56391485 
S      12.45316376      18.08941004      24.17681654 
S      32.22140889      17.36296084      29.44277867 
S      31.51180566      14.78624302      21.44965840 
S      29.94303553      19.33390261      16.19872643 
S      28.09641250      22.02154864      33.35803611 
S      22.99939488      27.83581299      34.77988662 
S      13.48004992      30.04278749      25.01708195 
S      16.36818962      17.94682259      17.15104211 
S      32.73178606      23.10073516      19.85354727 
S      26.90572352      30.95532506      33.51508608 
S      22.76672062      32.46633151      32.66501238 
S      17.16525864      31.53696005      17.61789335 
S      11.31929192      22.26050399      22.88627984 
S      25.03320431      13.29185721      26.85151165 
S      33.74596522      29.22148046      27.23969970 
S      28.42006811      26.60898172      33.42621065 
S      23.87762621      24.48759358      11.77222540 
S      27.65171871      25.90081413      13.25452964 
S      19.11488183      33.23536041      30.21983781 
S      28.87830224      17.54066230      32.76392016 
S      21.19089660      34.11970772      24.78450649 
S      31.10393458      32.36106314      27.81039963 
S      28.92615239      29.29021415      16.42381016 
S      33.54085826      17.20099557      23.91292816 
S      34.87285840      21.69952828      23.49066066 
S      19.08788970      13.66825288      25.61240482 
S      20.88474344      33.70256522      19.19991397 
S      12.64766041      19.41086598      19.54460319 
S      18.69675960      30.33133717      33.65630398 
S      31.92483072      30.94377442      22.92537241 
S      35.33220322      27.28758001      23.24100415 
S      31.14809335      30.34801763      31.42078670 
S      23.15323996      13.27947154      23.36496597 
S      32.23112441      19.16916796      19.74061371 
S      28.63888302      14.66094000      17.74263333 
S      15.42835516      30.32459249      29.29341481 
S      31.60584157      21.88426357      31.04304688 
S      20.72740810      26.73185130      14.07363688 
S      17.21803369      26.96919861      16.32511095 
S      27.48018077      12.78065024      21.99127584 
S      16.79154665      33.55217279      26.16915683 
S      15.12670859      21.63590465      31.08908939 
S      21.07140872      16.31384205      15.71170550 
S      24.77649055      29.17937175      13.60907058 
S      20.04756820      22.20362895      14.11736725 
S      21.19018458      31.22624902      15.23939241 
S      23.78049254      34.24078050      28.04325925 
S      13.42196032      17.32544734      29.28311185 
S      24.29164658      33.66534766      22.06230487 
S      27.68232717      21.24694193      12.54391065 
S      16.47978265      22.97125606      16.78384280 
S      25.93912283      16.69017925      14.55165186 
S      17.09995169      14.17042326      30.27101148 
S      28.58123080      13.99437803      29.80773148 
S      27.67918497      33.90122019      30.64223673 
S      32.90851811      27.87578124      19.35936899 
S      25.11190145      14.74455127      32.86792583 
S      14.35503814      29.26995407      19.40596433 
S      13.30803173      25.78206574      27.31054880 
S      34.61240255      20.32009055      27.81369306 
S      30.35869631      23.61738484      16.05059459 
S      18.81072482      25.65253237      34.61309473 
S      35.16394936      24.94253707      27.17282793 
S      19.71252726      20.59224519      34.70681995 
S      32.17277349      25.93744913      30.74250181 
S      23.74269792      19.91921937      12.88518932 
S      17.35886976      33.41642646      22.30070574 
S      15.63544061      26.03090426      30.56818942 
S      11.75309933      27.00691764      22.96337691 
S      24.43314074      13.13829504      17.44739732 
S      13.04103751      24.75201722      19.19702434 
S      21.63357472      13.56838302      29.17979968 
S      16.83013398      17.62974180      32.50879182 
S      15.72061889      15.72744044      21.38709692 
S      14.82691452      15.08236104      26.26273093 
S      25.30867377      32.96634335      16.35883922 
S      29.85694571      13.60578015      26.04890232 
S      19.97913514      13.54126892      19.51758853 
S      27.17472493      33.51890264      25.74473144 
S      12.87688202      21.55754586      27.29553727 
C      21.32448988      14.04430501      33.16672308 
C      30.19447511      33.14475922      19.95101862 
C      23.15562771      24.19371362      36.84432356 
C      23.44216505      18.91469639      37.07801905 
C      11.07902676      19.04082502      24.93027150 
C      32.54969003      15.58501105      29.13152307 
C      31.53622206      12.96989860      21.73183560 
C      31.64048453      20.00571311      16.02342494 
C      27.92298914      23.01151269      34.88956468 
C      22.59080796      29.34520430      35.73613767 
C      13.30031667      31.77344108      24.43420487 
C      16.90371050      16.51621835      16.12774952 
C      33.30805859      24.00898015      18.37020713 
C      26.60167943      32.72219929      33.88918700 
C      22.38028585      34.10308287      31.93421979 
C      17.01931851      33.36817903      17.56884848 
C      10.54500420      22.24888533      21.21902818 
C      26.45215109      12.23691790      27.32886156 
C      34.81939023      28.49508599      28.53747694 
C      27.92526404      27.76114620      34.76563791 
C      22.50789656      24.59171340      10.54926237 
C      26.99969669      26.57606383      11.67891974 
C      17.64848512      33.21056860      31.32675226 
C      29.70356366      18.49948522      34.09626801 
C      19.70338846      35.17007477      24.60752118 
C      32.61886865      32.54874639      28.82847903 
C      28.85369854      30.28955089      14.88552547 
C      34.46840612      16.62139484      25.38857183 
C      35.64453444      21.70401634      21.82419621 
C      17.46349838      12.96467380      25.14119465 
C      21.74790915      35.24676653      19.69407984 
C      12.62676679      17.85083027      18.57590064 
C      18.76416795      29.72869418      35.38767911 
C      33.61806789      31.54072256      23.32366523 
C      35.75077954      28.64631821      22.08267087 
C      31.96623883      29.92992129      33.01695664 
C      21.66450220      12.27066674      23.01194584 
C      33.36213848      17.79187193      20.17233755 
C      28.10960884      12.91452194      17.95740342 
C      14.20485703      29.52863279      30.40570414 
C      32.88928527      20.58616172      31.00082517 
C      19.51390298      25.90052496      12.97735376 
C      15.99065484      28.31959258      16.21613003 
C      26.42303046      11.34398811      22.43720449 
C      15.16008969      33.95936549      26.91198140 
C      14.90224872      20.73423295      32.66988894 
C      21.76001232      15.14048498      14.48081166 
C      23.26586915      29.46523437      12.61040270 
C      20.20051630      20.86312993      12.87196532 
C      21.59420346      33.01749465      15.22736287 
C      24.16908937      35.52830745      26.79891199 
C      11.97433257      17.43941923      30.41299343 
C      25.79392991      34.72293102      22.11345682 
C      28.99843404      21.12693035      11.26355328 
C      16.44493200      21.79099176      15.38343201 
C      27.72188075      16.30517548      14.32479463 
C      16.62274012      12.40214236      30.44917480 
C      29.93775600      13.68644239      31.00479308 
C      28.16194210      35.66905555      30.80009762 
C      32.81653775      29.00411331      17.90726854 
C      26.07879844      15.17276377      34.36694859 
C      12.96515339      30.07647620      20.29245167 
C      12.03200021      26.96056879      26.72437669 
C      36.11689751      19.76057159      26.92238424 
C      30.78171981      24.82794540      14.73968449 
C      18.94905856      24.50042683      36.03753543 
C      36.50041179      24.86309169      25.91527419 
C      19.68483484      19.22984475      35.93432886 
C      32.23925292      25.74175410      32.56517478 
C      24.81654248      19.11762414      11.63541347 
C      15.86469605      33.65357628      21.26010140 
C      15.16440978      25.20582124      32.13332410 
C      10.70711110      27.22146400      21.46952912 
C      22.93022629      12.38695581      16.70501618 
C      12.87664132      24.45075765      17.39300666 
C      21.55915026      12.08038049      28.11009904 
C      16.74460927      16.02594117      33.39055963 
C      13.91325953      15.43229587      21.35272969 
C      13.04351458      14.92541161      26.64547620 
C      26.99652216      33.60970045      16.02956149 
C      31.57390770      13.32796951      25.45536314 
C      18.17344359      13.31680600      19.25128713 
C      28.87235678      34.20322389      25.68213139 
C      12.08485167      22.40999616      28.71487060 
H      22.37948130      14.03057950      32.87370515 
H      21.18899671      13.49528376      34.10580027 
H      20.71193565      13.59667058      32.37314917 
H      30.63621189      33.45843155      18.99905167 
H      30.19859465      33.98759722      20.65275741 
H      30.76619716      32.31580611      20.38253178 
H      24.03517157      24.77284244      37.15006071 
H      22.45167165      24.85452192      36.32484082 
H      22.68025991      23.74690731      37.72475952 
H      23.27374792      18.12259811      37.81627492 
H      24.18148820      19.63037665      37.45675342 
H      22.50844989      19.44565702      36.86600067 
H      11.23268836      19.05817731      26.01676986 
H      11.04205077      20.06706063      24.54700888 
H      10.14277631      18.52218833      24.69256982 
H      33.32547808      15.52991671      28.35840141 
H      32.91956511      15.12944224      30.05698482 
H      31.64644840      15.07105073      28.78550653 
H      30.53438802      12.58189761      21.94856228 
H      31.94314625      12.48260940      20.83914513 
H      32.20098493      12.78088180      22.58262721 
H      31.61721555      21.09471789      15.90588353 
H      32.18273677      19.73695406      16.93973545 
H      32.10634245      19.53377903      15.15112341 
H      27.65267786      22.33477231      35.70811317 
H      28.89061491      23.48640660      35.09063810 
H      27.15353062      23.78397676      34.76691997 
H      21.91441491      30.00674173      35.17668889 
H      22.13509626      29.04914811      36.68804304 
H      23.53375959      29.87211922      35.92595043 
H      12.58038343      32.29010537      25.07893899 
H      14.26193607      32.29750863      24.44226978 
H      12.91172964      31.72801615      23.40967408 
H      17.02640861      16.86067609      15.09417195 
H      17.85499050      16.10107389      16.47949700 
H      16.12654058      15.74453808      16.16382103 
H      32.64224889      24.84684169      18.13441161 
H      34.31394834      24.38854432      18.58523581 
H      33.33763870      23.31147981      17.52571704 
H      26.93836541      33.36386962      33.06854328 
H      25.52724904      32.86248723      34.05715174 
H      27.15818270      32.96085077      34.80374027 
H      21.52182269      34.04961801      31.25622272 
H      22.16810499      34.79652957      32.75623603 
H      23.27118486      34.43094985      31.38343422 
H      16.09072552      33.63719691      18.08624718 
H      17.86994921      33.85144828      18.06231608 
H      16.95659549      33.68986348      16.52345712 
H      11.12958475      22.83835741      20.50430689 
H      10.47202939      21.21221608      20.86886929 
H       9.54149862      22.67896559      21.32011786 
H      27.36757605      12.81714610      27.47601597 
H      26.19410467      11.72012799      28.26084309 
H      26.60528637      11.50458458      26.52647764 
H      35.80397611      28.97181006      28.46813139 
H      34.35904022      28.72424970      29.50660887 
H      34.91630722      27.41019140      28.42126489 
H      27.77444609      27.17663581      35.68076398 
H      28.73200800      28.48745405      34.92017780 
H      27.00481032      28.29725527      34.51531694 
H      22.41739042      25.63953685      10.23881274 
H      22.75717291      23.97386883       9.67919023 
H      21.56059983      24.25682552      10.98303990 
H      26.13209968      26.00376628      11.33324294 
H      26.70893357      27.61679951      11.86753118 
H      27.80384560      26.53586971      10.93507177 
H      18.01299529      33.07745422      32.35269103 
H      17.12589076      34.16935998      31.23854838 
H      16.97009451      32.39066337      31.06887532 
H      30.57262468      17.94018009      34.45900827 
H      30.00593717      19.49175851      33.74545517 
H      28.97405997      18.61334418      34.90736323 
H      18.79507421      34.58088206      24.45643358 
H      19.59567499      35.77409771      25.51578768 
H      19.86141167      35.82427499      23.74131281 
H      32.48466618      32.10391501      29.82053066 
H      33.42472231      32.02981099      28.29532067 
H      32.85214680      33.61546551      28.91639897 
H      29.63121190      31.06074472      14.91627701 
H      29.04932681      29.60653751      14.04971202 
H      27.86602234      30.75020746      14.75081061 
H      34.20247964      15.56851049      25.54314250 
H      35.54344921      16.69991476      25.19199981 
H      34.20311100      17.20138957      26.27893385 
H      34.92546945      21.40994294      21.05218998 
H      35.98272035      22.72888401      21.62922091 
H      36.50425423      21.02535811      21.82802142 
H      16.96174979      12.58174902      26.03770493 
H      16.82269780      13.70888159      24.65884207 
H      17.65759433      12.13988113      24.44417318 
H      22.56172098      35.39391294      18.97326779 
H      21.04899121      36.08789630      19.63926050 
H      22.17417657      35.15793987      20.69930412 
H      13.10900045      18.04089517      17.61033263 
H      13.16127848      17.04513274      19.08762843 
H      11.57836135      17.56653371      18.42679821 
H      18.69617216      30.59322349      36.05749432 
H      17.90056076      29.06903120      35.53283966 
H      19.68059948      29.16176071      35.58139756 
H      34.25355564      30.73163275      23.70414346 
H      34.06957976      31.98529613      22.42990273 
H      33.51937417      32.30719496      24.10207736 
H      36.03144492      28.17600653      21.13294690 
H      34.89391211      29.30595168      21.90574889 
H      36.59584718      29.21607304      22.48352016 
H      31.50550848      29.05352865      33.48374382 
H      33.02427218      29.72193916      32.81869269 
H      31.88531377      30.79091773      33.69027832 
H      21.49730286      11.61108299      23.87175261 
H      20.78171715      12.90291027      22.85887700 
H      21.85449412      11.67981556      22.10880845 
H      33.45334963      17.13404990      19.30031752 
H      34.34224156      18.21654712      20.41991731 
H      33.00133069      17.20689663      21.02293580 
H      27.31712723      12.70748533      17.22843406 
H      28.97980072      12.27702342      17.76352400 
H      27.73555720      12.74124999      18.97262527 
H      13.29859387      30.14425185      30.42368657 
H      13.97342078      28.50930061      30.08068661 
H      14.65455075      29.49701779      31.40554850 
H      32.70874074      19.89663870      31.83462089 
H      32.87627535      20.03039195      30.05971731 
H      33.86510201      21.07262093      31.11885481 
H      19.63406956      24.81085211      13.00315737 
H      18.50769954      26.16316281      13.32681567 
H      19.66009024      26.27230151      11.95614266 
H      16.00601418      28.96299890      17.10011300 
H      16.22308204      28.92021438      15.32864163 
H      14.99716072      27.86617394      16.11353581 
H      27.05156755      10.53721942      22.82961717 
H      25.66230528      11.62230125      23.17440082 
H      25.92266432      11.00537540      21.52190854 
H      14.45721627      34.13365137      26.08865605 
H      14.78975883      33.14391897      27.54330408 
H      15.25959378      34.87746751      27.50123245 
H      14.54210261      21.45648351      33.41309277 
H      14.15466973      19.94354854      32.53220528 
H      15.83631549      20.28398083      33.01842319 
H      22.09121094      15.72638826      13.61542877 
H      22.61606637      14.58459185      14.88069974 
H      20.97121369      14.44327785      14.17527676 
H      22.44033092      29.83316396      13.22925903 
H      23.50802044      30.19433673      11.82869279 
H      22.98544815      28.50653755      12.15718481 
H      19.20562961      20.43238917      12.70853162 
H      20.57330115      21.30075633      11.93798463 
H      20.89393100      20.08340379      13.20004447 
H      22.60189141      33.13009592      14.80829579 
H      20.86047610      33.52516882      14.59067598 
H      21.56512570      33.43355884      16.23993760 
H      24.23050216      36.49384229      27.31362815 
H      25.11150118      35.30712795      26.28627150 
H      23.34017824      35.53307957      26.07884161 
H      11.97715165      16.54955148      31.05295792 
H      12.01849507      18.34181118      31.02922040 
H      11.06653717      17.45248010      29.79865679 
H      26.07741192      34.99718940      21.09153580 
H      25.55214991      35.62527491      22.68737893 
H      26.62323490      34.19302596      22.59654405 
H      29.92469147      21.60457465      11.59452479 
H      29.17694072      20.06433117      11.06248177 
H      28.62721022      21.61871773      10.35713362 
H      15.55494872      21.15905699      15.47462993 
H      16.40147555      22.38553339      14.46280888 
H      17.35010307      21.17149627      15.37378432 
H      28.18192771      15.94206990      15.25037412 
H      27.81385467      15.54070128      13.54488411 
H      28.22888424      17.22495425      14.00650652 
H      15.54338991      12.36161397      30.63517155 
H      16.86724694      11.83141843      29.54895908 
H      17.16393122      11.99109145      31.30921050 
H      30.83301381      13.42572470      30.42848718 
H      30.13373554      14.57268194      31.61944801 
H      29.65251781      12.84009579      31.63977300 
H      28.26821479      36.14386299      29.82079339 
H      27.38495243      36.18024137      31.38024772 
H      29.11509163      35.70940961      31.33943631 
H      33.03388495      28.41532153      17.00840729 
H      31.82300705      29.45407395      17.80691468 
H      33.57275429      29.78899876      18.01994328 
H      26.79767710      15.97191300      34.15683135 
H      25.37203855      15.49602294      35.14016460 
H      26.60833797      14.26997432      34.69235641 
H      12.79571567      29.60729418      21.26793862 
H      13.23149992      31.13175547      20.42639396 
H      12.06534696      30.00060987      19.67120711 
H      12.33167696      27.47062563      25.80425327 
H      11.09955502      26.41256981      26.54642136 
H      11.88004345      27.70479823      27.51612696 
H      36.11273523      20.09750077      25.88014121 
H      36.99283215      20.15797651      27.44763400 
H      36.13435984      18.66514778      26.95904006 
H      30.08656896      25.67245224      14.72920407 
H      31.79994988      25.18974485      14.92587592 
H      30.73861939      24.31797522      13.76969168 
H      19.75177873      23.76745486      35.89235709 
H      19.12683968      25.08136406      36.94917402 
H      17.99208839      23.97111352      36.12041732 
H      36.67764232      25.88215679      25.55049413 
H      37.40154211      24.47415758      26.40301959 
H      36.21703874      24.21538777      25.07921553 
H      19.69479738      19.65832251      36.94312956 
H      18.74978592      18.67830794      35.77722735 
H      20.53387430      18.54693667      35.79670522 
H      32.32427113      24.67202102      32.79248791 
H      33.12897575      26.26967938      32.92925491 
H      31.33999806      26.14722560      33.04246378 
H      25.74675232      19.67855803      11.50068838 
H      25.03858232      18.10733608      12.00131213 
H      24.25890495      19.06844398      10.69300098 
H      14.99355055      33.58778329      21.92295967 
H      15.90774098      34.65003295      20.80607270 
H      15.79507494      32.88601797      20.48166228 
H      15.05586894      25.97852785      32.90316124 
H      14.21110551      24.68942751      31.97094845 
H      15.92281079      24.47572800      32.44170807 
H      11.10773733      26.66670471      20.61388917 
H       9.69974454      26.86137208      21.70965414 
H      10.66126697      28.28915244      21.22527354 
H      22.55408006      11.63883346      17.41239031 
H      22.14057737      13.12756179      16.53347198 
H      23.20011859      11.90107920      15.76075242 
H      12.57523677      23.40300685      17.27188513 
H      12.10231984      25.10809775      16.98340491 
H      13.82847698      24.61244993      16.87688419 
H      22.55461174      11.95487277      27.66574751 
H      21.31440058      11.21766492      28.74012029 
H      20.80897130      12.20319658      27.32003604 
H      16.67618324      15.19453597      32.68147576 
H      17.65981690      15.93041529      33.98765350 
H      15.86440475      16.04682642      34.04360037 
H      13.34644951      16.37402471      21.37711334 
H      13.67157827      14.87704664      20.43834842 
H      13.64172136      14.83081540      22.22784264 
H      12.80932509      13.85842151      26.73770481 
H      12.79068743      15.45458723      27.56953671 
H      12.49561962      15.36314792      25.80173522 
H      27.75749779      32.83439189      16.17181979 
H      27.03997856      34.00910352      15.01077352 
H      27.17490857      34.41283749      16.75454303 
H      31.84993888      14.03696569      24.66719238 
H      32.24709053      13.45757960      26.31137517 
H      31.66222524      12.30218143      25.07987087 
H      18.01762520      12.81796578      18.28834310 
H      17.78512897      12.68528274      20.05853792 
H      17.64211021      14.27463664      19.26461250 
H      28.92604369      34.87027101      24.81330453 
H      29.05060069      34.76944989      26.60434523 
H      29.62616342      33.41555179      25.59356250 
H      12.03233120      23.47632181      28.45923640 
H      11.07707523      21.99927365      28.84432505 
H      12.67541543      22.27445032      29.62875582 
