699
Properties=species:S:1:pos:R:3 i=79 optimized=T E=-11392.3566009867 pbc="F F F" jobid=279_84-Ag-59_9-000001-PBE
Ag      33.15541597      25.53154258      25.97699075 
Au      32.04503771      29.33580052      21.53346175 
Au      34.55754007      28.13736732      25.37250576 
Au      29.87225619      14.89810272      19.74381442 
Au      34.04207509      19.38461147      23.85475181 
Ag      27.20963453      23.47314488      13.25330041 
Au      18.28551189      33.27967565      28.10987547 
Au      28.77301467      31.05932298      18.24023712 
Ag      24.95131651      21.20616821      23.27909636 
Ag      26.33987068      23.20853067      24.93299936 
Ag      28.23335525      25.04598471      23.64239517 
Au      23.79083547      21.64028357      29.02591317 
Ag      23.33855992      27.88241594      27.00900069 
Ag      26.94209932      23.02951867      22.00327866 
Ag      22.40257599      19.52896579      27.41814572 
Ag      27.23870493      21.13182104      26.74111915 
Ag      22.04529679      21.47384023      22.74828331 
Ag      21.05916664      23.54618759      20.88485574 
Au      27.66840104      25.23015548      26.58503673 
Ag      20.00756220      24.00586169      26.71094744 
Au      25.49658725      21.07271740      20.38385883 
Ag      24.27229610      25.73864435      28.81846827 
Au      23.86105288      27.69418024      24.10529773 
Au      26.19707969      27.59067955      27.60472049 
Au      20.92347961      21.87063911      28.44460417 
Au      22.87456141      23.71611891      27.22272637 
Ag      21.50712494      21.66907352      25.60514186 
Ag      19.55435582      19.81761831      26.89613375 
Ag      25.85400005      19.08306769      25.13216499 
Ag      25.22566371      23.57555519      30.76354555 
Au      23.03750837      25.34254606      19.59738981 
Ag      20.98581066      27.91411701      23.56278641 
Au      26.71988360      27.33990176      24.74223805 
Au      22.58958744      21.30909718      19.87505572 
Au      21.93271455      25.85659941      25.37870550 
Ag      27.16804502      25.45653113      29.48052984 
Au      20.16044018      19.65148473      24.06010101 
Ag      25.91153152      25.07445666      20.19136004 
Au      23.51469386      19.16459554      21.70772295 
Ag      22.31640065      23.91090571      30.08729689 
Ag      21.03685578      17.46093983      25.83229358 
Au      21.56458915      27.62168567      20.62338161 
Au      24.43468486      27.39520132      21.28429634 
Au      24.55888102      23.09218868      18.54499389 
Ag      28.60216806      23.16625337      28.47198242 
Ag      18.64091171      21.93103803      25.09290299 
Ag      26.70345818      21.30736039      29.65088816 
Ag      22.39630612      30.04389900      25.14129965 
Au      27.31885276      27.10476546      21.81667475 
Ag      21.84785306      19.69957385      30.32873015 
Au      18.47063365      26.37184673      27.68867345 
Au      23.15341354      21.76494161      31.95951582 
Ag      21.61380306      23.34716748      17.97462371 
Au      17.13334689      24.25858006      26.16300447 
Ag      27.47530254      22.79463048      19.05612111 
Ag      23.86554085      17.16416736      26.35697786 
Ag      23.26786337      17.42499173      29.28606403 
Au      25.24443230      29.75096660      25.75156354 
Ag      21.64925033      17.17906641      22.94633308 
Au      28.77627267      18.77942930      25.71448696 
Au      22.85452821      29.74444843      22.24840517 
Au      25.38516196      25.27049681      23.05445026 
Au      20.08075566      25.59736605      18.97454080 
Ag      29.60945930      27.08700921      25.31905823 
Au      19.39106627      24.26741522      29.58630825 
Au      18.03058413      22.14247884      27.94769847 
Au      20.01788727      28.37427946      29.33796566 
Au      23.70063049      25.85744390      31.66998252 
Ag      20.92277740      26.31182028      31.16259738 
Au      26.39304540      18.96016416      22.15879639 
Au      24.68249457      19.57029803      30.87279475 
Ag      20.38094641      17.68649256      28.71041080 
Ag      28.87324979      24.79465645      20.72488779 
Ag      19.57461486      30.24297309      24.59654991 
Au      25.82166013      29.54841785      22.80870858 
Au      24.96709565      27.11455330      18.30577631 
Au      28.41981427      20.75077370      20.85873376 
Ag      29.08074397      27.38529837      28.21588509 
Au      30.08129819      20.89320992      27.29640077 
Au      18.17148474      23.83999350      20.35458177 
Au      17.82477261      19.64976494      20.68230724 
Au      25.65143262      27.74471884      30.47355044 
Ag      28.07977651      23.38725827      31.31023286 
Ag      21.93172822      30.17200962      28.08948840 
Ag      21.75906482      24.13700625      32.92379549 
Au      18.70868209      27.90992410      20.12745369 
Ag      16.34787986      21.96399056      21.66610370 
Au      30.54806336      25.03585781      27.10875069 
Au      23.43947780      23.48346742      24.30813361 
Ag      20.00697592      29.98269761      21.66318579 
Ag      16.63761272      20.00333822      26.42810999 
Ag      26.73750077      17.01579134      26.96290480 
Ag      30.00917248      25.25282076      29.97761629 
Ag      17.61996773      28.44851073      25.90371663 
Ag      16.23890528      26.30113725      24.32988391 
Ag      28.59822111      29.12403427      23.40015484 
Ag      27.86277750      26.81746193      18.96505563 
Au      24.10180902      19.01356463      18.73423572 
Au      27.37695600      16.82735674      24.02045752 
Au      26.97386243      18.73644392      19.25762548 
Ag      26.01687316      21.43004439      32.70246230 
Au      12.60118203      18.75681652      22.12181432 
Ag      23.11280035      21.08529402      16.99796248 
Ag      26.37789462      29.15947016      19.92954959 
Ag      19.90173636      19.57320312      32.45689799 
Ag      26.06371436      17.26823734      29.83652222 
Ag      29.21855384      18.66339496      22.76089901 
Ag      27.61824897      29.66157038      29.23070479 
Au      15.27927532      22.34692899      27.42324549 
Ag      26.06448138      20.83702089      17.35507971 
Au      24.52536549      23.88688608      33.60895247 
Au      23.60849364      25.10576702      16.60195499 
Ag      17.55447929      17.90475410      28.16943515 
Au      19.14508837      30.47990653      27.46333514 
Au      23.54104330      29.46938501      19.35833103 
Ag      22.46524373      25.57796549      22.49113582 
Au      16.21637815      20.05418336      29.40208329 
Au      27.48746346      19.16622706      31.41741318 
Ag      29.19549338      28.95911412      20.53947349 
Ag      16.48140525      24.45233705      29.01796059 
Ag      32.05356051      22.78891197      26.11592428 
Ag      16.74688076      21.61072353      18.82270387 
Ag      24.85519946      31.55312670      20.82673081 
Au      21.95875549      31.67661683      20.35828986 
Ag      20.72770092      25.38782824      16.18062182 
Au      24.39012447      31.85592694      23.96579038 
Ag      20.61195490      29.70031868      18.73294256 
Au      23.11931662      14.89530361      21.65836186 
Ag      30.34546072      22.48365856      19.65575250 
Ag      25.11846096      22.86047018      15.57928780 
Ag      18.72764965      23.60479476      17.40303840 
Ag      28.89159629      20.49374535      17.99582758 
Au      17.61535516      22.50718814      30.93976127 
Ag      17.17758798      28.75416223      28.76417731 
Ag      27.85914509      16.63817767      21.06957258 
Ag      15.65456055      26.74011907      27.14216851 
Ag      18.89941249      15.64432682      27.03360231 
Ag      19.61400487      15.45598053      24.09372022 
Au      18.07380322      26.71381487      30.67886596 
Ag      20.21927660      15.33345052      21.27637500 
Au      27.32613056      31.49102436      24.35258057 
Au      24.92477071      15.23741170      28.33292215 
Ag      23.97251299      23.29624029      21.45954517 
Ag      20.20938449      21.20584294      16.42525701 
Ag      27.97461980      22.67149843      16.06421171 
Au      31.30767413      20.32866400      21.72473481 
Ag      26.81888088      31.73122602      27.43603852 
Au      25.61469011      14.92532477      25.25447571 
Ag      28.65133261      16.23622650      28.95776784 
Au      26.00313393      14.84639663      22.37618426 
Au      32.52053130      22.49991833      23.31256091 
Ag      25.72260658      30.50897194      31.32659004 
Ag      22.94821829      30.86604211      30.75862048 
Ag      24.04805877      17.08496206      32.04653169 
Ag      31.25721983      17.84363256      24.75464114 
Ag      17.12923155      26.03617638      18.58991500 
Au      31.47230712      22.91668221      28.86672640 
Ag      29.32523715      16.00768170      26.00175176 
Au      15.59291180      29.14008825      23.97658813 
Ag      16.08532745      28.86637717      21.09175588 
Au      17.05643727      31.17599849      25.51989704 
Ag      29.43582162      24.70335274      17.88929577 
Ag      30.70147839      18.01844491      27.66057769 
Ag      18.40937581      17.53046001      30.89392255 
Au      23.95991223      19.70070591      33.65454766 
Ag      17.99496615      30.59313739      19.70344756 
Ag      17.47123529      30.95872046      22.62457433 
Au      14.18612710      27.01833433      22.49321236 
Ag      32.61853766      19.92183995      26.40521451 
Au      24.80835315      25.52393366      25.96971207 
Ag      32.90904217      26.72707994      23.10421103 
Au      24.78702936      20.08785467      14.93459613 
Ag      20.07202129      31.04632112      30.16623319 
Au      31.72258090      27.70424274      27.19261602 
Au      23.91927043      28.54781623      32.57112933 
Ag      29.83124645      15.88007858      23.03518335 
Au      22.39918128      17.01611578      34.56644108 
Ag      13.97236633      19.50417817      27.65463008 
Ag      24.17911742      27.84530094      15.62396153 
Au      15.12565299      17.49254797      30.56497814 
Au      25.59525499      25.55504847      14.68734740 
Ag      28.72150924      30.53779131      31.99607458 
Ag      22.74879306      30.10478093      16.75172676 
Ag      21.92239144      21.71262322      34.70731791 
Ag      31.20247160      28.21669083      30.32577735 
Ag      19.64048848      15.05026268      29.78177955 
Ag      22.77367486      25.60560002      13.79708905 
Ag      16.19039381      15.00301024      28.07909971 
Ag      24.96197016      32.80596087      29.44510157 
Ag      26.59400161      14.60581119      30.85143933 
Ag      28.34584443      13.52874159      24.06807493 
Ag      16.33004494      17.12647016      19.58846797 
Ag      16.19967156      17.12488465      23.37533183 
Ag      20.77106782      15.66777181      17.66342430 
Ag      11.98360109      24.55792516      23.00986961 
Ag      14.74505764      30.04454654      26.98966078 
Au      24.39548597      21.35306519      26.14742992 
Au      15.10606312      19.78663543      20.31743335 
Ag      25.50015285      31.06525137      18.04163437 
Au      28.66882109      20.30413359      14.47114343 
Ag      30.18380761      26.92737896      22.43432419 
Ag      31.06578304      24.81949735      24.19946662 
Au      31.79629772      24.70927012      21.44481939 
Ag      20.55015989      23.77857522      23.82333124 
Au      25.17128461      14.91755320      15.95455242 
Ag      30.76294790      29.67845635      25.18338588 
Ag      25.76207640      23.41520356      27.86331278 
Au      26.84320278      28.61938731      17.04787324 
Au      20.72404977      31.38913665      33.12202693 
Ag      17.72640433      23.99880598      23.28546642 
Ag      22.98912456      19.29767088      24.55201579 
Ag      27.78846447      20.92333686      23.84950010 
Au      19.60480897      25.84042854      21.98130385 
Au      25.04103552      31.03619028      15.02678126 
Ag      25.20264591      19.28706686      27.99294293 
Ag      19.06915446      26.07982049      24.85170445 
Ag      20.51998328      28.16506402      26.43229176 
Au      21.40342278      26.03042555      28.27169642 
Ag      29.17585853      23.00006631      25.49270876 
Ag      19.21135170      21.73368762      22.20615817 
Au      24.50847419      17.02387322      23.51257735 
Ag      22.84942972      28.10204656      29.92549755 
Au      20.69279173      19.42963210      21.15094126 
Ag      20.39681812      22.16278967      31.33567994 
Au      24.78422720      29.97509936      28.68460170 
Ag      18.08654627      28.19145656      23.00870002 
Au      28.12915808      19.00048975      28.58025533 
Au      19.04783923      20.07383185      29.77736479 
Ag      29.76376737      22.69141652      22.60125109 
Ag      19.67075980      21.51892882      19.23671385 
Au      18.20496088      17.80192439      25.28459627 
Au      15.79112232      22.09526097      24.52131714 
Ag      16.68747562      26.10437403      21.42828507 
Ag      26.52661705      24.86422457      17.30032412 
Ag      28.10746353      29.40448153      26.27441765 
Ag      17.20730148      19.83440845      23.51599894 
Ag      18.86119825      17.60889998      22.43262697 
Ag      30.65466378      20.66426363      24.46612378 
Au      22.11824866      27.45188748      17.70565476 
Ag      21.20761006      19.28368951      18.30136088 
Ag      22.17918531      17.12438834      19.96832892 
Au      21.90637823      15.44901342      27.61658164 
Ag      18.98394307      24.49679847      32.42610564 
Au      26.42322988      25.59217047      32.46822896 
Au      14.88404098      24.21747665      22.72751557 
Ag      29.58598583      20.83041945      30.20167945 
Ag      23.84519609      31.97219524      26.76941280 
Ag      22.49229408      15.10149868      24.81257764 
Au      24.97157124      16.88073255      20.54624300 
Au      28.46046537      27.66424807      31.03872750 
Ag      19.32456427      17.42884886      19.56892263 
Ag      27.73730626      31.21246599      21.53652938 
Ag      15.36583687      24.03419260      19.84802248 
Au      21.21209683      17.09356294      31.38048869 
Au      21.33209126      32.02785864      23.20044399 
Ag      14.23218563      24.39770057      25.48733997 
Ag      22.25772659      23.01221143      15.04146348 
Au      30.62795939      26.69959883      19.52727799 
Ag      18.39916485      19.39433583      17.73532545 
Ag      22.93396420      18.21603800      16.27799224 
Ag      15.51470049      17.36360769      26.18780832 
Ag      30.26404073      30.02123801      28.04110168 
Ag      29.78416808      18.31011258      19.84203718 
Ag      13.66993318      21.58139161      22.65243581 
Ag      30.45683432      17.73302079      30.79928305 
Au      26.68088535      15.96925636      18.50650177 
Ag      20.93375233      32.41889716      26.41314640 
Ag      19.27970036      27.81291461      17.09153878 
Au      25.83479030      18.05124543      16.65482060 
Ag      14.50538197      19.50883430      24.53971065 
Ag      19.07331796      33.09355566      20.84011580 
Ag      23.96889376      22.08145991      12.75671690 
Au      34.69782096      22.50452609      27.41302644 
Ag      28.95807825      32.54150676      29.27640090 
Au      19.28183492      31.14386635      16.51703961 
Au      23.66887505      14.94092794      18.91882519 
Ag      14.11505749      27.06786604      19.49373649 
Ag      21.15564382      26.85316451      34.20587840 
Ag      19.57811742      28.66699979      32.10658199 
S      20.63625218      15.88660367      33.50531393 
S      28.64637268      32.78278407      19.84056732 
S      23.87607000      22.82987731      35.70956651 
S      24.16599915      18.20741102      35.57081308 
S      12.42705191      18.08918329      24.36798476 
S      32.36108413      17.32416097      29.35133031 
S      31.46995975      14.86694171      21.47751314 
S      29.97629698      19.25999313      16.12099077 
S      28.33748868      21.99802065      33.36863757 
S      23.20881996      28.01875139      34.82560868 
S      13.48266416      30.03405162      24.91710647 
S      16.41576510      17.95963031      17.29805167 
S      32.75665093      23.17182792      19.78726674 
S      26.82894396      30.79022101      33.50355691 
S      22.81902263      32.39279892      32.75440487 
S      17.18105272      31.47637722      17.52846741 
S      11.29031234      22.25217385      22.86149639 
S      25.02617472      13.21166363      26.89725482 
S      33.81440204      29.04277836      27.41468487 
S      28.59586794      26.45804740      33.20963456 
S      23.82268330      24.34171189      11.91943843 
S      27.48977161      25.90811616      13.22490828 
S      19.31818790      33.41821605      30.22017312 
S      28.94329955      17.67093175      32.69435168 
S      21.22527702      34.06440862      24.51509369 
S      30.91272635      32.39448178      27.81401968 
S      29.01492947      29.53277946      16.44007624 
S      33.52579484      17.09499465      24.07106846 
S      34.81699252      21.59562138      23.54590152 
S      19.22282363      13.55305810      25.65091299 
S      20.87279952      33.55384944      19.26110905 
S      12.75714821      19.39160360      19.85296093 
S      18.66294513      30.37267047      33.65324207 
S      31.72236580      30.93381552      23.25143782 
S      35.34016031      27.25251748      23.34055805 
S      31.02042035      30.51277895      31.23334043 
S      22.96743028      13.12452425      23.32320215 
S      32.14516618      19.15045258      19.74116912 
S      28.53193637      14.54361570      17.83814121 
S      15.49531038      30.50162708      29.23880909 
S      31.64012802      21.94263522      31.10819610 
S      20.64357302      26.83073300      14.17003077 
S      17.07685340      26.96053192      16.29187476 
S      27.31428882      12.83194757      21.97172077 
S      16.94277561      33.54216030      26.18319181 
S      15.35123251      21.62675485      31.17074151 
S      20.97794956      16.90561252      15.57374295 
S      24.84687244      29.17748770      13.60127735 
S      20.05134021      22.20527453      14.15220030 
S      21.21055400      31.23218989      15.17559996 
S      22.92990038      33.74350015      28.25012620 
S      13.43722809      17.42377082      28.91448620 
S      24.41423248      33.58949493      22.22719421 
S      27.50728899      21.15997235      12.60096759 
S      16.39489825      22.96444810      16.77866611 
S      26.11144332      16.62574905      14.64470824 
S      17.31978223      14.22196199      30.06810619 
S      28.74919571      13.96896151      29.92987326 
S      27.09853010      33.56746681      30.47136753 
S      32.69707366      28.06222426      19.64017425 
S      24.91268411      14.82176291      32.56912816 
S      14.34425241      29.49376597      19.44697869 
S      13.34152803      25.86745302      27.27980746 
S      34.58094251      20.20678572      27.90560142 
S      30.36846211      23.53002849      15.93680868 
S      18.99024425      25.79563017      34.53383813 
S      35.27258450      24.74811305      27.02564610 
S      19.70504979      20.68718028      34.64663136 
S      32.28883741      26.02496101      30.62636571 
S      23.63586227      19.65512273      12.82270735 
S      17.03631910      33.35342455      22.12106942 
S      15.68190520      26.20057964      30.65235712 
S      11.75608010      26.97008310      22.88291998 
S      24.20601904      13.23475905      17.28502296 
S      13.16187977      24.86448496      19.13431189 
S      21.77149099      13.76810562      29.39561940 
S      16.50432967      17.48202540      32.48077684 
S      15.87299155      15.62305401      21.44928035 
S      14.89922972      14.97768218      26.01962705 
S      25.25187495      32.94388145      16.40882860 
S      29.71812398      13.57556414      26.05810351 
S      20.03285354      13.94410493      19.21592474 
S      27.17090241      33.53418429      25.69176003 
S      12.92312898      21.74883106      27.25755364 
C      21.20762897      14.15418824      33.31589994 
C      30.38427342      33.18534604      20.27726096 
C      23.26995117      24.17807360      36.80254367 
C      23.46358766      19.09369996      37.01620147 
C      11.01921599      19.06248748      25.03350144 
C      32.50403041      15.49351316      29.24909721 
C      31.64013720      13.06397007      21.79377369 
C      31.64682039      19.98690732      15.90429437 
C      28.20008020      23.04996115      34.86615629 
C      22.76618348      29.55744561      35.71705689 
C      13.41159098      31.78174984      24.35652983 
C      16.89105227      16.56094751      16.20283402 
C      33.27516810      24.21000081      18.37032768 
C      26.66363169      32.55329205      33.98504774 
C      22.47371400      34.10804539      32.20308793 
C      17.06507388      33.31049117      17.53167745 
C      10.58468390      22.19017920      21.16322877 
C      26.52065740      12.25395925      27.34472457 
C      34.86500412      28.24990761      28.69278512 
C      28.22116204      27.59869763      34.59525617 
C      22.49092264      24.24942522      10.65078900 
C      26.81760279      26.52681940      11.63443917 
C      17.85600204      33.40170668      31.33672428 
C      29.74001782      18.62831497      34.04189490 
C      19.66996419      34.96677110      24.17289061 
C      32.44477037      32.66517308      28.78370957 
C      28.86000033      30.51113096      14.89530038 
C      34.38175853      16.52633378      25.59328931 
C      35.52798131      21.58788010      21.85374646 
C      17.64963779      12.74360436      25.15280632 
C      21.71734901      35.03903313      19.93723328 
C      12.67238598      17.85782164      18.84793814 
C      18.83113694      29.77037490      35.38026610 
C      33.40651835      31.49041326      23.72791356 
C      35.72839088      28.68796531      22.26502910 
C      32.03781178      30.47863373      32.76975500 
C      21.46329342      12.16268294      22.90972710 
C      33.35227686      17.87065140      20.25347883 
C      27.96089215      12.81426554      18.06984487 
C      14.23679534      29.76925129      30.36100653 
C      33.05570756      20.78073750      31.15805299 
C      19.35962231      26.04213553      13.11825391 
C      15.85510067      28.31875404      16.14014275 
C      26.22107581      11.41902692      22.39717227 
C      15.30136240      33.89778059      26.92605572 
C      15.27151394      20.81853269      32.81283640 
C      21.60872560      15.74316692      14.29467601 
C      23.36183736      29.47897569      12.56646619 
C      20.20947008      20.84764003      12.92352768 
C      21.62441839      33.02102406      15.26812449 
C      23.42901926      35.30388984      27.41254468 
C      11.90251504      17.86707310      29.83039134 
C      25.96389196      34.55504739      22.36427036 
C      28.80179196      21.22594363      11.29273396 
C      16.35240265      21.79489850      15.36393449 
C      27.88940627      16.22000818      14.46106573 
C      17.52472172      12.41626056      29.76938215 
C      29.80081010      13.93856631      31.44064699 
C      27.23434004      35.35317534      30.04295874 
C      32.66109419      29.24995262      18.24014357 
C      25.93392733      15.04750624      34.08339323 
C      12.93668641      30.14943774      20.43089780 
C      12.12581467      27.05950038      26.60117293 
C      36.10157892      19.55409318      27.10898594 
C      30.65962985      24.78259841      14.62673905 
C      19.16712598      24.65874621      35.96957194 
C      36.52051288      24.59098117      25.68688956 
C      19.66924363      19.38571862      35.94351276 
C      32.40864485      25.74582450      32.43669358 
C      24.82488136      18.85735183      11.67919808 
C      15.62498056      33.40005317      20.94572534 
C      15.30142576      25.43997571      32.27672810 
C      10.80926206      27.15704389      21.31947159 
C      22.66276220      12.68247536      16.46451737 
C      13.04301180      24.67023925      17.31065236 
C      21.33320398      12.19157750      28.56926483 
C      16.38366458      15.81577102      33.23878568 
C      14.08980902      15.18146396      21.39177096 
C      13.12355390      14.76878010      26.43497344 
C      26.90252290      33.67002454      16.06318790 
C      31.46283886      13.31410683      25.54408726 
C      18.27305131      13.56482783      18.84042987 
C      28.80631071      34.36177330      25.72453329 
C      12.19223685      22.31258284      28.84302094 
H      22.24461993      14.11137119      32.96370844 
H      21.11679131      13.65973505      34.28980456 
H      20.54717172      13.67105748      32.58546783 
H      30.88331720      33.60812670      19.39868362 
H      30.34852057      33.93428228      21.07749887 
H      30.92406781      32.30347340      20.63833637 
H      24.13175482      24.76995802      37.13197578 
H      22.56230375      24.83398596      36.28347268 
H      22.78315558      23.72011317      37.67160883 
H      23.29495593      18.36494936      37.81707885 
H      24.20289166      19.83926298      37.33108036 
H      22.52749173      19.60160380      36.76242292 
H      11.10804433      19.06156427      26.12677224 
H      11.03485417      20.09379288      24.66384849 
H      10.08727923      18.57091574      24.73260267 
H      33.23120932      15.26059771      28.46205427 
H      32.87807610      15.11495509      30.20713957 
H      31.54469385      15.02014674      29.00968265 
H      30.67766539      12.60729018      22.04979426 
H      32.05481100      12.58771721      20.89850261 
H      32.34209727      12.94301716      22.62699197 
H      31.58950634      21.07680902      15.79979838 
H      32.22547499      19.72796828      16.80001916 
H      32.10990047      19.54322906      15.01605879 
H      28.01166386      22.40210538      35.72980050 
H      29.14838160      23.58338611      34.99883969 
H      27.38360667      23.77519464      34.76408088 
H      22.04073467      30.16006452      35.15380992 
H      22.35129925      29.28476391      36.69473621 
H      23.68458320      30.13995292      35.85631932 
H      12.78440968      32.35128667      25.05196494 
H      14.41158274      32.22627715      24.30020504 
H      12.95116461      31.79121264      23.36120027 
H      16.87898131      16.92610717      15.16908469 
H      17.89502530      16.18802961      16.43610933 
H      16.15651925      15.75578141      16.31344837 
H      32.44900210      24.83664044      18.01269389 
H      34.11595602      24.84080315      18.67930898 
H      33.58688614      23.53296674      17.56568069 
H      26.95869052      33.21722849      33.16530495 
H      25.61312424      32.73413792      34.24275796 
H      27.29772733      32.72872129      34.86175516 
H      21.74181698      34.13049124      31.38862646 
H      22.10433224      34.68334473      33.05937960 
H      23.42401998      34.53045412      31.85404676 
H      16.12118106      33.57525023      18.02187605 
H      17.90313377      33.76889598      18.06886541 
H      17.04629676      33.66396145      16.49501415 
H      11.23075863      22.70149953      20.44129408 
H      10.47586491      21.13880750      20.87285537 
H       9.60102348      22.67303298      21.18234586 
H      27.37664736      12.89708766      27.56842173 
H      26.27678682      11.65763153      28.23251953 
H      26.77149300      11.58899799      26.50909149 
H      35.83931660      28.75200417      28.68444030 
H      34.37131969      28.39416633      29.66165126 
H      34.98939427      27.17863867      28.50241372 
H      28.13246404      26.99331745      35.50560537 
H      29.05100166      28.30764316      34.70024971 
H      27.29250806      28.15201302      34.42554893 
H      22.31575810      25.25988123      10.26304545 
H      22.82079910      23.59927687       9.83248533 
H      21.56173588      23.86032993      11.07980838 
H      25.96536956      25.92382414      11.30209304 
H      26.50358403      27.56734955      11.78213475 
H      27.62488690      26.47819078      10.89399600 
H      18.22250145      33.23622276      32.35749751 
H      17.35594996      34.37431392      31.27111572 
H      17.15642642      32.60350282      31.06596857 
H      30.65334959      18.10573824      34.34755934 
H      29.96905099      19.64993648      33.72045483 
H      29.03552633      18.66827234      34.88110693 
H      18.79416675      34.31261077      24.18722173 
H      19.55426897      35.73135208      24.95091209 
H      19.75112306      35.44964615      23.19146944 
H      32.32845732      32.27839189      29.80239019 
H      33.26615119      32.13845987      28.28394745 
H      32.64962541      33.74171422      28.80790398 
H      29.69589258      31.21683885      14.83371157 
H      28.91331570      29.79680863      14.06458326 
H      27.90131815      31.04202688      14.85061531 
H      34.11258266      15.47265943      25.73552769 
H      35.46433282      16.60946948      25.44837104 
H      34.07151667      17.10434587      26.47136853 
H      34.79928098      21.23481495      21.11674645 
H      35.80476777      22.62192589      21.61536728 
H      36.42070860      20.95250007      21.85185196 
H      17.14140673      12.35656949      26.04378793 
H      16.97831821      13.43815379      24.63888314 
H      17.90067564      11.91104485      24.48450377 
H      22.65198445      35.17743278      19.38108291 
H      21.06232086      35.90441422      19.78455779 
H      21.94844442      34.92010231      21.00126539 
H      13.04594799      18.10159843      17.84663112 
H      13.28575420      17.05858020      19.27533559 
H      11.62378298      17.54274156      18.79643311 
H      18.78851298      30.62714068      36.06150611 
H      17.98665364      29.09749064      35.56939382 
H      19.76381026      29.21623429      35.52847862 
H      34.00671753      30.65863597      24.12015007 
H      33.90292531      31.94358003      22.86248012 
H      33.27853892      32.24479815      24.51405096 
H      35.99878841      28.28344352      21.28238752 
H      34.86243636      29.34956488      22.14783532 
H      36.57574032      29.23836554      22.68760894 
H      31.77685541      29.62463640      33.40209118 
H      33.09456582      30.41424641      32.48539019 
H      31.86532495      31.41034543      33.32102620 
H      21.50283476      11.23885241      23.50037685 
H      20.55625146      12.71870004      23.17788286 
H      21.46081986      11.92326873      21.84104893 
H      33.54332572      17.22816851      19.38532587 
H      34.28119392      18.36750061      20.55799708 
H      32.97978049      17.25557361      21.07744629 
H      27.17851663      12.62195723      17.32571413 
H      28.81510691      12.14961276      17.89730308 
H      27.56451116      12.66469011      19.08029271 
H      13.28048336      30.28237238      30.21251131 
H      14.12244449      28.69419864      30.18609199 
H      14.58237079      29.92695253      31.38970489 
H      33.00656269      20.24734705      32.11576020 
H      33.03104539      20.05721606      30.33832125 
H      33.98688560      21.35590134      31.10179798 
H      19.47846429      24.95251017      13.09857250 
H      18.37940125      26.29358514      13.54274916 
H      19.44217259      26.44691332      12.10300777 
H      15.82700377      28.95457555      17.02927498 
H      16.12334823      28.93130585      15.27175351 
H      14.86516449      27.87272972      15.98515371 
H      26.85043250      10.54876780      22.61551073 
H      25.58155475      11.65284833      23.25431228 
H      25.58617806      11.21179502      21.52766021 
H      14.57160199      33.94648354      26.10980111 
H      15.01116701      33.12235529      27.64375532 
H      15.35683599      34.87172654      27.42576761 
H      15.02358018      21.59164726      33.55017841 
H      14.48433425      20.05574954      32.78945140 
H      16.22272725      20.34617194      33.07674870 
H      21.77966969      16.32049424      13.37807966 
H      22.55371587      15.27678774      14.60229033 
H      20.85347935      14.97193451      14.10444425 
H      22.50902306      29.81056119      13.16838595 
H      23.60771503      30.23447593      11.81199427 
H      23.11303284      28.52933971      12.07684799 
H      19.19711833      20.53804568      12.63755994 
H      20.74439478      21.21471029      12.03984986 
H      20.75067636      19.99126806      13.33723267 
H      22.61640196      33.15424224      14.81932587 
H      20.87533765      33.58101007      14.69770621 
H      21.64339901      33.37047186      16.30621545 
H      23.30354734      36.12965197      28.12233909 
H      24.47024591      35.25241198      27.07762241 
H      22.77595894      35.45394532      26.54382578 
H      11.69068154      17.08372715      30.56714914 
H      12.00545248      18.83238097      30.33493617 
H      11.08369318      17.91740851      29.10281715 
H      26.08463270      35.12655837      21.43646192 
H      25.87576487      35.23451464      23.21975699 
H      26.83154752      33.90131764      22.51212566 
H      29.68255175      21.78037475      11.62929986 
H      29.08807306      20.20091910      11.03087748 
H      28.36599872      21.72101594      10.41709098 
H      15.49679443      21.12110219      15.48094776 
H      16.24225407      22.38656448      14.44737450 
H      17.27977813      21.21242721      15.30555563 
H      28.32148939      15.86371128      15.40179648 
H      27.98071802      15.44742518      13.68882098 
H      28.39999436      17.13754707      14.14157194 
H      16.53496747      11.94536618      29.75664728 
H      18.03568848      12.22739121      28.81957815 
H      18.11594330      11.99375661      30.59040218 
H      30.84805029      13.84337245      31.13067083 
H      29.67994701      14.84632969      32.04114633 
H      29.52088312      13.06180333      32.03554627 
H      27.16923334      35.50547659      28.96064399 
H      26.41975831      35.89492936      30.53777940 
H      28.19516347      35.73099058      30.41117329 
H      32.84144141      28.67683657      17.32275548 
H      31.69328283      29.75783819      18.16585494 
H      33.46415132      29.98194725      18.38273842 
H      26.69363168      15.82398510      33.94226521 
H      25.26874725      15.33449029      34.90690173 
H      26.42045237      14.09422836      34.31904726 
H      12.85410434      29.64955455      21.40254939 
H      13.11134200      31.22094692      20.58585709 
H      12.01061167      30.01568018      19.86031962 
H      12.45428438      27.49022674      25.65125253 
H      11.17907437      26.52949765      26.44389707 
H      11.97956849      27.86443046      27.33145391 
H      36.10486155      19.74640717      26.03011923 
H      36.97529722      20.01970325      27.57797454 
H      36.12499308      18.47320075      27.29160123 
H      29.95980387      25.62021789      14.69911413 
H      31.68635097      25.15181834      14.73592827 
H      30.54444827      24.30797496      13.64509710 
H      19.88607854      23.85592415      35.76802210 
H      19.48371817      25.23611543      36.84494712 
H      18.18458352      24.21171807      36.16158658 
H      36.74081858      25.59883008      25.31542605 
H      37.42600773      24.14219177      26.10995524 
H      36.14642749      23.96843477      24.86723959 
H      19.76144431      19.85795363      36.92846887 
H      18.70376393      18.87007232      35.87822273 
H      20.47508243      18.65253730      35.80207000 
H      32.53739383      24.66774493      32.59738496 
H      33.28211161      26.28388862      32.82262948 
H      31.50249083      26.08036310      32.95501999 
H      25.75432316      19.43347715      11.61605427 
H      25.04026792      17.84879106      12.05132505 
H      24.34785415      18.80189537      10.69337602 
H      14.70465425      33.39604274      21.54208588 
H      15.67220888      34.32645321      20.36261116 
H      15.62304295      32.53396959      20.27404848 
H      15.53502718      26.15387043      33.07386087 
H      14.22950908      25.20713208      32.28267961 
H      15.87551189      24.51605104      32.41938379 
H      11.24711403      26.56869125      20.50506674 
H       9.78359751      26.81973544      21.50951821 
H      10.79687893      28.21781423      21.04468731 
H      22.09421750      12.09920297      17.19793451 
H      22.05456257      13.53014728      16.13242767 
H      22.93656264      12.05495076      15.60866703 
H      12.65810753      23.66386339      17.10800271 
H      12.34486329      25.41725728      16.91751306 
H      14.02397735      24.77718825      16.83513934 
H      22.24686584      11.76911790      28.13338622 
H      20.93421108      11.50758902      29.32773721 
H      20.59113528      12.35049145      27.77703025 
H      16.47300344      15.02800432      32.48330970 
H      17.20685914      15.73230229      33.95871197 
H      15.42303956      15.73900324      33.76042804 
H      13.45186073      16.07389412      21.44366828 
H      13.88401752      14.62394934      20.47063617 
H      13.87752652      14.54297178      22.25774778 
H      12.91751906      13.69562566      26.52122314 
H      12.87734877      15.27631051      27.37356410 
H      12.52974795      15.20013696      25.62067960 
H      27.71094884      32.96564510      16.29011952 
H      26.95196735      33.98562766      15.01568468 
H      27.00449200      34.54344395      16.71842912 
H      31.78194076      14.05023526      24.79823250 
H      32.08617001      13.41043001      26.44127776 
H      31.56907172      12.30233454      25.13710252 
H      18.19110489      13.24438429      17.79619303 
H      17.96145896      12.74618023      19.49989780 
H      17.62314789      14.42942422      19.02030460 
H      28.88310097      34.98933370      24.82866528 
H      28.86613567      34.99034983      26.62106275 
H      29.62567987      33.63759730      25.74593752 
H      12.10467204      23.40566624      28.80428017 
H      11.19738898      21.86045990      28.93538426 
H      12.81804693      22.02279470      29.69476522 
