699
Properties=species:S:1:pos:R:3 i=74 optimized=T E=-11078.7132465563 pbc="F F F" jobid=279_84-Ag-30_1-000003-PBE
Au      33.20557492      25.46889781      26.14132091 
Au      32.18182094      29.33408085      21.55230900 
Au      34.62038408      28.15070356      25.47563513 
Au      29.86806980      14.88848279      19.72808738 
Ag      33.84694673      19.55873083      23.68040172 
Au      27.55346679      23.22930367      12.90429483 
Au      18.20534899      33.26690618      28.17157115 
Au      28.54218663      30.78433287      18.00758294 
Au      24.97275260      21.25774908      23.21770894 
Au      26.34591691      23.31849567      24.90396507 
Ag      28.27317649      25.16713347      23.60891384 
Au      23.76534899      21.68673241      29.04818772 
Ag      23.38382971      27.94023443      26.94717342 
Au      26.98366438      23.11690199      21.98216682 
Au      22.36088587      19.63695011      27.36813808 
Au      27.24627887      21.22853283      26.72653282 
Ag      22.08362348      21.55162578      22.67298462 
Ag      21.07465994      23.59187928      20.79285464 
Au      27.66478138      25.35544879      26.58057863 
Au      19.94656183      24.07449465      26.67053026 
Ag      25.53013488      21.07917424      20.31964524 
Ag      24.28989402      25.81217341      28.80781906 
Au      23.92429308      27.74682954      24.01541667 
Au      26.20582414      27.66701514      27.59873834 
Ag      20.88071345      21.94713357      28.41842557 
Au      22.85001575      23.77616881      27.19463564 
Ag      21.48687512      21.75470005      25.56412216 
Au      19.52424398      19.89714832      26.86860000 
Ag      25.87196111      19.17611899      25.07652794 
Ag      25.22535819      23.68149534      30.75283991 
Ag      23.07419891      25.37275971      19.49045920 
Ag      21.03279868      27.95578470      23.50565211 
Au      26.74192777      27.43169800      24.65981273 
Au      22.61616152      21.37029906      19.78035121 
Au      21.97292713      25.91023114      25.31777075 
Ag      27.17226809      25.59433050      29.50699229 
Au      20.17669603      19.72160355      23.97447941 
Ag      25.96367626      25.11427988      20.15758578 
Ag      23.55730159      19.25451259      21.61703011 
Ag      22.31532224      23.97645918      30.08230611 
Au      21.03432221      17.49035164      25.81637844 
Au      21.64084294      27.62781503      20.57868040 
Au      24.51891190      27.45379144      21.16872769 
Au      24.56819384      23.12101127      18.47331641 
Ag      28.60771904      23.26724790      28.45789791 
Au      18.64054955      22.01722284      25.05276859 
Au      26.68267447      21.37003083      29.66248585 
Au      22.43545481      30.08852868      25.09814800 
Ag      27.31727744      27.20376237      21.79445247 
Ag      21.75852206      19.81721808      30.20810077 
Au      18.42366927      26.39955168      27.66365368 
Au      23.12164091      21.81005180      31.91079080 
Ag      21.64077456      23.41293436      17.82185516 
Au      17.02856703      24.29664071      26.17164160 
Au      27.49181274      22.81351349      19.02831681 
Au      23.85928619      17.19055794      26.31973075 
Au      23.22440725      17.49824791      29.19674398 
Au      25.27798273      29.85702969      25.71944489 
Ag      21.63774813      17.30854819      22.89587868 
Au      28.80924195      18.85951537      25.66604847 
Au      22.90409459      29.81921838      22.20184428 
Ag      25.40748930      25.38128428      23.02458795 
Au      20.15856926      25.65325768      18.94741995 
Ag      29.62546717      27.20010800      25.32145382 
Au      19.37836028      24.30879186      29.53692726 
Ag      17.96958942      22.20272654      27.90699099 
Au      19.93961015      28.37672712      29.36455871 
Ag      23.72772726      25.97860244      31.65730061 
Ag      20.90787275      26.34807945      31.15073788 
Au      26.43888432      18.99673343      22.12177269 
Ag      24.58608869      19.50184711      30.92199665 
Ag      20.32316639      17.69091420      28.67002281 
Ag      28.93277730      24.86989428      20.72785296 
Au      19.58656172      30.22414584      24.57710062 
Au      25.80416468      29.63879874      22.74737535 
Au      25.02947770      27.19107865      18.24906810 
Ag      28.45788198      20.81006240      20.87997122 
Ag      29.10656082      27.45720439      28.25728988 
Ag      30.06096971      20.96721603      27.34811596 
Ag      18.14352426      23.91717383      20.27621353 
Au      17.70776484      19.71425322      20.65626865 
Ag      25.60281193      27.84022549      30.49178523 
Au      28.15862935      23.51201923      31.27622074 
Au      21.94088904      30.25863488      28.09443643 
Ag      21.72221522      24.17713053      32.94189642 
Au      18.67922321      27.96841357      20.07029464 
Ag      16.30133541      22.03200296      21.65212194 
Au      30.50719829      25.16665809      27.14643912 
Au      23.43758862      23.55694974      24.28123573 
Au      20.05242996      30.00573121      21.62948419 
Ag      16.60980380      20.06484638      26.38981173 
Au      26.72049660      17.12538797      26.91393126 
Au      29.96679237      25.30304332      30.06154477 
Au      17.59312398      28.50701043      25.86161577 
Au      16.17218949      26.34209033      24.24172118 
Ag      28.59856387      29.24434730      23.33559785 
Au      27.90403652      26.94080572      18.99677001 
Au      24.16393681      19.07265763      18.67343690 
Au      27.39294282      16.85450610      23.98072786 
Au      26.98349863      18.77050994      19.21100255 
Au      25.88782538      21.45762060      32.64781762 
Au      12.50491017      18.72768358      22.14593176 
Au      23.06768068      21.06970280      16.90019731 
Ag      26.42353662      29.31013708      19.70441426 
Au      19.96569796      19.62342041      32.38426285 
Au      26.08362259      17.26976068      29.81200949 
Ag      29.28338128      18.71235415      22.72650533 
Au      27.66418840      29.75121318      29.17668703 
Au      15.13180065      22.42406783      27.36644797 
Au      26.09064858      20.84465006      17.26700069 
Au      24.48739111      23.99047410      33.55768507 
Au      23.63177667      25.19834439      16.48354534 
Ag      17.54848026      17.94984020      28.12007886 
Au      19.08492543      30.49433022      27.55137236 
Au      23.60427528      29.51164290      19.28986807 
Au      22.50223772      25.60466381      22.40715839 
Au      16.07689830      20.14784781      29.18490456 
Ag      27.45994790      19.25043210      31.44637146 
Au      29.22051706      28.99847554      20.56134893 
Ag      16.40686600      24.57847585      28.95582273 
Au      31.92964845      22.86287455      26.12086131 
Au      16.60360554      21.68780809      18.80331312 
Au      24.88421936      31.71038560      20.69814027 
Au      22.01211456      31.76753596      20.31232826 
Au      20.68824430      25.51519966      16.11175277 
Au      24.32359282      31.94894096      23.95215934 
Au      20.74778898      29.71395921      18.75272924 
Au      23.10884504      15.07698204      21.59303059 
Au      30.28844909      22.57722744      19.51820862 
Au      25.11004267      22.90825451      15.49724924 
Au      18.72963419      23.79801752      17.32784500 
Au      28.93518140      20.63104258      17.91206315 
Au      17.56133004      22.56171201      30.81945438 
Au      17.10156362      28.76117343      28.73970368 
Ag      27.90224649      16.68092767      21.03233647 
Au      15.54615534      26.95442125      27.04732933 
Ag      18.87676675      15.63269627      27.01081825 
Au      19.54683229      15.51260022      23.92751691 
Au      17.95977079      26.78694342      30.68121357 
Ag      20.22307387      15.40179641      21.18274140 
Ag      27.26358098      31.62426038      24.25833978 
Ag      24.86799149      15.20619250      28.29565496 
Au      24.02595850      23.35544959      21.38110450 
Au      20.02650695      21.25351086      16.42825146 
Au      27.88688445      22.85223976      15.86595475 
Au      31.45891127      20.36552984      21.82209106 
Au      26.99628546      31.83970493      27.40173355 
Au      25.70222482      14.98053715      25.25087349 
Au      28.70301439      16.40597336      28.88501581 
Ag      25.98325734      14.87748982      22.31767383 
Au      32.63179438      22.59965205      23.34593688 
Ag      25.91616313      30.60226248      31.28514513 
Au      23.09344090      30.85828913      30.77580101 
Au      24.08235351      16.79800141      31.81978327 
Ag      31.34595409      17.88668907      24.75257323 
Au      17.05443160      26.09275759      18.59575273 
Au      31.52533969      22.95767699      28.87418769 
Ag      29.33743569      16.05708822      25.98810554 
Au      15.53948439      29.25317605      23.88179478 
Ag      16.06822702      29.00688671      20.95761820 
Au      17.06650699      31.25194276      25.53434656 
Au      29.51584671      24.94473907      17.80969417 
Au      30.70910993      18.12836979      27.60803545 
Au      18.49832872      17.61767967      30.92097593 
Au      23.89188401      19.83559358      33.71736867 
Au      18.15153139      30.78272550      19.67680429 
Au      17.49059932      31.04399482      22.59066488 
Au      14.18330326      27.15514099      22.36469481 
Au      32.64768353      20.03919054      26.39230194 
Au      24.82763287      25.61688842      25.92951162 
Au      33.02785857      26.68383581      23.07955867 
Au      24.80504057      20.06303595      14.82992175 
Ag      20.19301387      31.06457654      30.23976383 
Au      31.78853261      27.77402197      27.21230870 
Au      22.55642675      28.41855684      32.51757221 
Au      29.86167586      15.94323202      23.04931476 
Au      22.37458788      16.97215576      34.39312651 
Au      13.21047139      19.57778579      28.70519459 
Ag      24.18231745      27.87717593      15.48852858 
Ag      15.65536323      17.41466689      30.29236780 
Au      25.76401884      25.61481883      14.60460857 
Au      28.92348379      30.55637433      32.52972866 
Ag      22.72775706      30.20626640      16.65600612 
Au      21.82111722      21.82193125      34.88832380 
Ag      31.07055069      28.42022920      30.26361549 
Au      19.45563814      13.99807187      29.38164008 
Ag      22.97769339      25.48188309      13.63206915 
Au      16.04818969      14.89687835      28.00932526 
Ag      25.22216934      32.85820875      29.50839070 
Au      26.71152815      14.61137504      31.11539259 
Ag      28.39765499      13.62490502      24.19225496 
Ag      16.38207480      17.11301240      19.99560079 
Au      16.19182590      17.29950001      23.22528560 
Au      20.69433300      15.46448292      17.57835895 
Au      11.77108034      24.57804330      22.89262358 
Ag      14.73709690      29.98164968      26.90419285 
Au      24.34940812      21.44347969      26.11594433 
Au      14.94951324      19.90952821      20.21120358 
Au      25.30953529      31.33641636      17.96922095 
Ag      27.77210989      20.08275428      14.95032668 
Ag      30.26742622      27.03586663      22.43780462 
Au      31.12378354      24.94757541      24.23511632 
Au      31.84803208      24.74433209      21.43762448 
Ag      20.54783401      23.86180254      23.76614400 
Au      25.17689117      14.75883283      16.08964264 
Au      30.72554926      29.82528713      25.08679377 
Au      25.72812357      23.50144413      27.86776985 
Au      27.11115462      27.59816307      16.32336854 
Au      20.74125198      31.29490918      33.21256245 
Au      17.67779229      24.05894697      23.19831729 
Au      23.00284571      19.39089941      24.45431136 
Au      27.84155255      20.99844410      23.80153393 
Au      19.62139798      25.90201288      21.87421209 
Au      24.95128243      30.97179364      14.74782733 
Au      25.17765915      19.37201145      27.97523043 
Au      19.06499143      26.15556013      24.76824489 
Au      20.56303681      28.18128967      26.42695829 
Au      21.40391116      26.05326508      28.24726033 
Ag      29.14592648      23.10095486      25.49509415 
Au      19.21167379      21.82987644      22.12786836 
Au      24.53439418      17.08636934      23.47323373 
Au      22.84455142      28.14078626      29.80581538 
Au      20.70166671      19.54383960      21.06589557 
Ag      20.37098885      22.21882390      31.26868315 
Au      24.84884241      30.05912570      28.65264898 
Au      18.02750180      28.26650561      22.92841357 
Au      28.10263601      19.12715294      28.60157713 
Ag      18.90930569      20.14624745      29.71010238 
Ag      29.84597902      22.79005096      22.58769548 
Au      19.63937860      21.60493417      19.20530582 
Au      18.23097644      17.81148026      25.26095402 
Au      15.67998484      22.22791829      24.49546204 
Ag      16.67669427      26.17105516      21.39409634 
Au      26.55660576      24.94139817      17.29927451 
Au      28.12471157      29.48450568      26.19004524 
Au      17.23088870      19.95250263      23.54044638 
Au      18.85575700      17.67203043      22.28715641 
Au      30.68493011      20.72866927      24.48338576 
Au      22.22584835      27.50192570      17.61773801 
Ag      21.18360409      19.33157374      18.23000657 
Au      22.19193445      17.25747825      19.94672632 
Ag      21.88293321      15.45251555      27.61170083 
Au      18.96642783      24.53876245      32.32963013 
Au      26.41289842      25.67079655      32.47512208 
Ag      14.71919083      24.29149079      22.67642240 
Ag      29.58021192      20.92426464      30.24111275 
Au      23.84336473      32.09922373      26.76164341 
Ag      22.46732323      15.19900924      24.70522047 
Au      25.01933887      16.95520540      20.52784735 
Au      28.34017813      27.94342476      31.16464850 
Ag      19.34735609      17.46804391      19.45148841 
Au      27.70536427      31.26052339      21.44537736 
Au      15.32291123      24.12225411      19.88464870 
Au      21.29958437      17.18389264      31.31203873 
Au      21.10944309      32.16149385      23.07092754 
Au      14.17203133      24.45942432      25.42046202 
Au      22.39758684      22.93377780      14.86248234 
Au      30.72212953      26.80253739      19.51870709 
Au      18.31468521      19.45897079      17.72451884 
Au      22.90236217      18.23239242      16.27159602 
Ag      15.54924839      17.36217346      26.08780396 
Au      30.31304691      30.10336518      27.95959934 
Au      29.73233792      18.45825819      19.80131303 
Ag      13.65259083      21.52445398      22.58330701 
Au      30.40793269      17.62569799      31.05628452 
Au      26.66803858      15.96439233      18.50023885 
Au      20.79949922      32.30983724      26.34182557 
Au      19.29204695      27.99425002      17.16603050 
Au      25.93173009      18.03522131      16.55125199 
Au      14.58179735      19.51709067      24.41786979 
Au      19.07475631      33.47120907      20.79506302 
Au      23.82046539      22.14759284      12.27917721 
Ag      34.41906898      22.55950277      27.59579592 
Au      28.90263902      32.95597238      29.46086780 
Ag      19.29075154      31.01779058      16.58058849 
Ag      23.61943302      15.16944080      18.73685414 
Au      13.73123248      27.14707593      19.39008888 
Au      20.63755407      26.64945389      34.58960620 
Ag      19.56749806      28.63935488      32.18067258 
S      20.64656660      15.80975025      33.30448164 
S      28.59604300      32.58974125      19.56091894 
S      23.77414443      22.92717679      35.66866973 
S      24.07003727      18.18925216      35.48105375 
S      12.46731603      18.25106335      24.45372490 
S      32.18057879      17.59566019      29.50213171 
S      31.41672020      14.87333452      21.50148860 
S      29.70021773      19.06837490      16.21254930 
S      28.17936493      22.01286879      33.24436463 
S      22.69999932      27.77599328      34.86815130 
S      13.44066647      30.06139973      24.82850460 
S      16.49577410      17.82369912      17.61623643 
S      32.65657209      23.11358110      19.79944796 
S      26.81517512      30.69489653      33.58028631 
S      22.84089810      32.27296541      32.76555775 
S      17.15575826      31.59359206      17.61667766 
S      11.29355770      22.28893786      22.69202613 
S      24.99804537      13.21831909      26.76636307 
S      33.86929633      29.13678385      27.47391263 
S      28.55366893      26.57676093      33.22457416 
S      23.87983367      24.38759574      11.57005255 
S      27.60275091      25.59052139      13.00159013 
S      19.19725423      33.34762761      30.30449689 
S      28.79383263      17.61400686      32.77287436 
S      21.26047377      34.00324049      24.64764026 
S      30.78925524      32.49242205      28.12434065 
S      28.87458951      29.26318017      16.20730417 
S      33.55100060      17.15209533      23.89477120 
S      34.92074913      21.74192342      23.45279761 
S      19.19304896      13.63391855      25.42571367 
S      20.88807169      33.69426799      19.29474369 
S      12.64397373      19.23957407      19.85280213 
S      18.61229692      30.39707302      33.68600862 
S      31.89738121      30.94265639      23.27803764 
S      35.36286952      27.21609918      23.44335620 
S      31.12847234      30.47125675      31.71362778 
S      23.07821449      13.26013559      23.21541725 
S      32.07770041      19.19198283      19.78545620 
S      28.53126015      14.54109860      17.82795134 
S      15.42464551      30.47198664      29.20166377 
S      31.66862760      22.01503525      31.10811179 
S      20.77200560      26.63414155      13.95854223 
S      17.20339133      27.05109813      16.33308060 
S      27.42589985      12.88411330      22.09113597 
S      16.87235899      33.57512287      26.23809103 
S      15.40732021      21.53974954      31.20651066 
S      21.12787244      16.72375169      15.60641476 
S      24.70084865      29.10019547      13.35831331 
S      20.14618897      22.18622916      14.18430036 
S      21.15633575      31.28579900      15.06761125 
S      23.40872359      33.99780100      28.20981311 
S      13.33899460      17.34633369      29.43811719 
S      24.40549935      33.61780699      22.17479433 
S      27.71119187      20.90436683      12.58100319 
S      16.45824003      23.02256293      16.75633876 
S      26.04431428      16.43329017      14.67607011 
S      17.19092785      14.28484857      29.98889208 
S      28.50850216      14.10652355      29.68004976 
S      27.14941693      33.74639106      30.82176598 
S      32.81350769      28.09470535      19.61964059 
S      25.05608381      14.76824528      32.78121304 
S      14.21745972      29.44827329      19.34340174 
S      13.36665466      25.89457452      27.25372372 
S      34.65885226      20.13474841      27.76348170 
S      30.26914766      23.52287524      15.98022060 
S      18.53896568      25.57367785      34.51451831 
S      35.23479307      24.83076741      27.31834923 
S      19.73374053      20.73992274      34.53717940 
S      32.16428360      26.19598064      30.61923247 
S      23.67176560      19.82830372      12.69465328 
S      17.17980499      33.44531266      22.20320851 
S      15.58964358      26.15436689      30.74670594 
S      11.81813588      26.92664771      23.01122158 
S      24.26754003      13.10467312      17.49438334 
S      13.06337690      24.88035633      19.21951453 
S      21.70000807      13.41686346      29.02402947 
S      16.72468804      17.34087540      32.59047156 
S      15.72211710      15.46233110      21.73070559 
S      14.69539951      15.02490458      26.08044076 
S      25.26993994      32.87883091      16.10093539 
S      29.81806205      13.63286657      26.17308257 
S      20.06648172      13.87399744      19.21820376 
S      27.20354511      33.63816341      25.72963056 
S      12.81250420      21.75042310      27.89659263 
C      21.26690002      14.10494400      33.03974729 
C      30.38120757      32.83936815      19.91012535 
C      23.19583225      24.25657383      36.79487942 
C      23.34533231      18.94008282      36.99062701 
C      11.16383300      19.31722692      25.17873497 
C      32.63131704      15.83326479      29.26334913 
C      31.52791805      13.08056163      21.88246324 
C      31.23778451      19.80153697      15.53594019 
C      28.06449197      23.02259977      34.76911941 
C      22.38920631      29.22808962      35.94555818 
C      13.33970063      31.83602942      24.36756480 
C      16.97872157      16.42220944      16.53267151 
C      33.19318671      24.08842513      18.34660447 
C      26.63049582      32.40974915      34.20553761 
C      22.47641735      33.97685674      32.19311381 
C      17.16765470      33.42983888      17.55447405 
C      10.59128812      22.18357693      20.99838272 
C      26.42994910      12.15174186      27.17863199 
C      34.86362748      28.35112583      28.79861854 
C      28.22242728      27.57203483      34.72893033 
C      22.51286442      24.51445170      10.34744665 
C      26.99923423      26.24096487      11.39846787 
C      17.71915287      33.22792410      31.39013727 
C      29.56054429      18.52238371      34.17265326 
C      19.77518418      35.05206061      24.43794669 
C      32.28528977      32.73438865      29.15343865 
C      28.63869340      30.23334786      14.67170319 
C      34.50896150      16.66801644      25.38628563 
C      35.62915904      21.80895838      21.76115534 
C      17.57832151      12.90580434      24.94598341 
C      21.81245561      35.18129303      19.84094317 
C      12.70072863      17.65398037      18.93067888 
C      18.64811751      29.80052612      35.42124884 
C      33.58427872      31.36480417      23.85629671 
C      35.81837052      28.59916874      22.32963370 
C      32.12022705      29.93207266      33.16347313 
C      21.63434250      12.21443494      22.78578628 
C      33.20451240      17.81857347      20.22167509 
C      27.97005386      12.81242343      18.08449683 
C      14.17814934      29.68636363      30.29688149 
C      33.06290453      20.82701759      31.13760218 
C      19.54913500      25.78108824      12.89221660 
C      15.97447787      28.39879741      16.19160292 
C      26.37624739      11.43535615      22.51223182 
C      15.21428954      33.87900917      26.96766331 
C      15.59026921      20.61595756      32.77565886 
C      21.83425531      15.52357131      14.41349380 
C      23.14650476      29.39156476      12.42641924 
C      20.27944492      20.74687096      13.05947918 
C      21.51204355      33.08687303      15.18096283 
C      24.16404167      35.42333582      27.33860297 
C      12.27384378      17.30765867      30.93554401 
C      25.97105664      34.55655106      22.29428311 
C      29.43543225      20.65098687      11.99692949 
C      16.51986473      21.81988098      15.37915445 
C      27.80850854      16.01089885      14.41161463 
C      16.62765360      12.54927535      30.24300479 
C      29.86388778      13.72264382      30.85617897 
C      27.07044830      35.54594609      30.44551264 
C      32.66577902      29.29675337      18.23769614 
C      26.02296141      15.22819611      34.27036634 
C      12.89580631      30.27285889      20.31597314 
C      12.06268033      27.04628193      26.68734110 
C      36.15253176      19.83645775      26.73341022 
C      30.70079293      24.65084588      14.60097074 
C      18.61285881      24.27972124      35.81390344 
C      36.52303889      24.62539974      26.02382135 
C      19.65481359      19.38462430      35.77010998 
C      32.29049902      25.90915033      32.42594287 
C      24.80767182      18.97623761      11.53615349 
C      15.72939146      33.58164084      21.08813880 
C      15.26806088      25.30722419      32.33777512 
C      10.70642267      27.42626162      21.63963478 
C      22.80290011      12.41464849      16.62965141 
C      12.94443230      24.55035301      17.41732222 
C      21.60502765      11.97744658      27.88870960 
C      16.80164395      15.64631032      33.27379788 
C      13.90864420      15.19558279      21.70742594 
C      12.95451962      14.94895735      26.65632117 
C      26.98037961      33.47424039      15.81034470 
C      31.53846776      13.39161053      25.57379941 
C      18.30061902      13.48086653      18.89861239 
C      28.89026006      34.35590908      25.77087087 
C      12.33227616      22.71146328      29.38181991 
H      22.32033057      14.09970312      32.74128248 
H      21.14042336      13.54798837      33.97537506 
H      20.65677421      13.65429043      32.24613114 
H      30.86495015      33.22049323      19.00365810 
H      30.45737609      33.58362452      20.71184934 
H      30.86019892      31.90883907      20.23573219 
H      24.07318607      24.85035200      37.07780461 
H      22.46031359      24.90746443      36.30915667 
H      22.76049538      23.78956275      37.68562963 
H      23.10867445      18.13907321      37.69975117 
H      24.10577133      19.60555103      37.41625565 
H      22.44863162      19.52447619      36.75952684 
H      11.35035890      19.36883574      26.25959545 
H      11.17840370      20.32314141      24.74665484 
H      10.19585444      18.84052787      24.98546303 
H      33.43162391      15.80576950      28.51385038 
H      33.00100308      15.43096900      30.21318837 
H      31.77385829      15.25157840      28.90967176 
H      30.54097010      12.65752923      22.10121158 
H      31.97000630      12.57681884      21.01546727 
H      32.18915388      12.96709581      22.74864848 
H      31.12122508      20.87765064      15.36100844 
H      32.04758103      19.63610963      16.25692789 
H      31.47296577      19.29105615      14.59413236 
H      27.81751301      22.35881142      35.60543929 
H      29.04216117      23.49209425      34.93068041 
H      27.29513927      23.79765418      34.66193358 
H      21.65227466      29.90712107      35.49927218 
H      22.05107294      28.88225781      36.92857581 
H      23.34732787      29.75283749      36.04596812 
H      12.67991796      32.34669074      25.07863684 
H      14.33048052      32.30281857      24.37185130 
H      12.90904157      31.89970823      23.36101016 
H      16.99927235      16.78493008      15.49827627 
H      17.96771815      16.02506013      16.79448415 
H      16.22152461      15.63575864      16.63152087 
H      32.46575723      24.87753894      18.11685094 
H      34.16864950      24.53208776      18.57712599 
H      33.27696490      23.40462305      17.49369127 
H      26.96127005      33.13996518      33.45976269 
H      25.56639762      32.56232598      34.42403354 
H      27.21964845      32.51038172      35.12387445 
H      21.64776861      33.99259707      31.47695201 
H      22.22749363      34.58256621      33.07211314 
H      23.38532073      34.36189984      31.71436291 
H      16.31082513      33.80721192      18.12438066 
H      18.09315221      33.84323213      17.96896710 
H      17.06370329      33.72647652      16.50415882 
H      11.22934917      22.70265253      20.27548142 
H      10.51648765      21.12224298      20.73389822 
H       9.59411072      22.63724600      21.00779601 
H      27.30216595      12.73147109      27.49348177 
H      26.11994655      11.49206853      27.99847732 
H      26.68510606      11.55023263      26.29787105 
H      35.85033144      28.82836348      28.80871972 
H      34.34731350      28.53142212      29.74934469 
H      34.96744658      27.27284805      28.63345879 
H      28.21069460      26.88357266      35.58253090 
H      29.02993948      28.30467427      34.84789441 
H      27.26906087      28.10428453      34.66239723 
H      22.44748874      25.56196801      10.02901211 
H      22.74676461      23.88418069       9.48206475 
H      21.55795454      24.20580237      10.78316249 
H      26.11411128      25.69416520      11.05700657 
H      26.74943377      27.29828712      11.55035069 
H      27.81253140      26.14685801      10.66945657 
H      18.07112491      33.07209324      32.41708477 
H      17.16141065      34.16836014      31.32281792 
H      17.07714551      32.39156123      31.09308026 
H      30.42807569      17.96035536      34.53462613 
H      29.85517279      19.53482132      33.87784803 
H      28.80447995      18.58455161      34.96495490 
H      18.85895778      34.45986149      24.36586691 
H      19.71137126      35.71899128      25.30613361 
H      19.90461673      35.63921116      23.52052081 
H      32.16791221      32.27247547      30.13950817 
H      33.12491653      32.27249490      28.61998332 
H      32.45234784      33.81316836      29.25384372 
H      29.37504611      31.04464120      14.64965286 
H      28.81390388      29.55211986      13.83030013 
H      27.61864924      30.63707880      14.60330376 
H      34.24762801      15.63183670      25.63263328 
H      35.57932461      16.72414009      25.15676416 
H      34.27583839      17.31486065      26.23929660 
H      34.88721538      21.52491613      21.00760338 
H      35.95705521      22.83809591      21.57262208 
H      36.49060375      21.13266095      21.71893781 
H      17.14452546      12.42029908      25.82824974 
H      16.88461336      13.66882696      24.57894945 
H      17.75473507      12.16038604      24.16164897 
H      22.71416871      35.24665155      19.22003903 
H      21.18244791      36.06291676      19.67883394 
H      22.10256330      35.10320255      20.89368564 
H      13.00336637      17.88648034      17.90311630 
H      13.42194195      16.95639409      19.36867592 
H      11.69546440      17.21757307      18.93935527 
H      18.83203138      30.64333899      36.09594204 
H      17.65880594      29.37344173      35.62605425 
H      19.40491321      29.02021405      35.56642083 
H      34.10724779      30.48165080      24.25085197 
H      34.14319021      31.80017023      23.02001145 
H      33.47660909      32.10826842      24.65527611 
H      36.02348823      28.16621629      21.34340344 
H      35.00231562      29.32462140      22.23767152 
H      36.71989458      29.08098514      22.72423918 
H      31.75849436      28.97885872      33.56099380 
H      33.15963362      29.81698033      32.83297633 
H      32.06812906      30.70219664      33.94140566 
H      21.66885315      11.33511296      23.44078505 
H      20.69648675      12.75625310      22.95691781 
H      21.70854710      11.90235516      21.73869093 
H      33.25091860      17.14012781      19.36132088 
H      34.19754232      18.24156075      20.41771860 
H      32.86477968      17.26523917      21.10129232 
H      27.17333122      12.60872575      17.35897791 
H      28.82565608      12.15192896      17.90357645 
H      27.59455843      12.67120157      19.10407334 
H      13.23980203      30.24583224      30.20944954 
H      14.01971868      28.63506261      30.03488572 
H      14.55017057      29.74363129      31.32669866 
H      32.93895013      20.18933741      32.02160029 
H      33.09119785      20.19774096      30.24374600 
H      33.99927278      21.39152871      31.21544092 
H      19.66161189      24.69220296      12.94937186 
H      18.54357607      26.06395348      13.22609525 
H      19.70422586      26.12064573      11.86083382 
H      15.98030770      29.05382016      17.06723181 
H      16.21411129      28.98564219      15.29672855 
H      14.98302380      27.94149912      16.08638723 
H      27.01711693      10.62306371      22.87217438 
H      25.62735305      11.69261399      23.26897154 
H      25.86030689      11.11864926      21.59791886 
H      14.49317671      33.95267828      26.14565137 
H      14.92333438      33.07378078      27.65113174 
H      15.25290906      34.83289652      27.50624598 
H      15.41047214      21.31697639      33.59963467 
H      14.84465443      19.81286819      32.80062294 
H      16.59094259      20.18301650      32.87312479 
H      22.06027537      16.07824034      13.49479880 
H      22.75694932      15.06936730      14.80004769 
H      21.08439563      14.75194099      14.20503327 
H      22.37070788      29.82530330      13.06732277 
H      23.36722132      30.06797962      11.59306006 
H      22.80736025      28.42121370      12.04388133 
H      19.26379453      20.37264147      12.88309664 
H      20.72831986      21.07921049      12.11572890 
H      20.89689865      19.95443019      13.49296902 
H      22.49446922      33.27480771      14.73156713 
H      20.74054034      33.62801314      14.62151817 
H      21.51793976      33.42866525      16.22146440 
H      24.22458735      36.25838791      28.04718237 
H      25.16389192      35.17607933      26.96167148 
H      23.51360333      35.69697976      26.49892826 
H      12.36848799      16.31033636      31.38093936 
H      12.58079619      18.06287712      31.66494594 
H      11.23361850      17.48019021      30.63770246 
H      26.07534758      35.15591220      21.38225456 
H      25.91123838      35.20585573      23.17538256 
H      26.82980443      33.87999382      22.39344256 
H      30.16086145      21.04724957      12.71381801 
H      29.59177424      19.57166807      11.88038944 
H      29.56319963      21.14527767      11.02739015 
H      15.53054033      21.35634029      15.28883145 
H      16.76993858      22.36765788      14.46291906 
H      17.27946966      21.04859761      15.56499590 
H      28.29091130      15.69800624      15.34349540 
H      27.85560486      15.20247499      13.67284656 
H      28.30620890      16.90773378      14.02288353 
H      15.55468066      12.57308862      30.46504476 
H      16.81103329      11.93701475      29.35551417 
H      17.17534261      12.13984534      31.09979371 
H      30.75664804      13.49268941      30.26267486 
H      30.06459266      14.56889192      31.52261207 
H      29.57539326      12.84037727      31.43868341 
H      26.96307308      35.72303781      29.37112597 
H      26.20425912      35.96133664      30.97434061 
H      27.98693568      36.02263134      30.81149321 
H      32.82677945      28.74525522      17.30368508 
H      31.67393591      29.76187791      18.21627561 
H      33.44207889      30.06123274      18.35558112 
H      26.72891710      16.03560816      34.04777841 
H      25.31439063      15.55055331      35.04229956 
H      26.56720075      14.33745944      34.60466242 
H      12.84813317      29.88067386      21.33770872 
H      13.14235493      31.34136007      20.34468803 
H      11.93349946      30.13548295      19.81077114 
H      12.31112295      27.50975395      25.72861430 
H      11.13580188      26.46946719      26.58186753 
H      11.93504897      27.82146679      27.45270764 
H      36.09929430      20.36554967      25.77620161 
H      37.02215693      20.18554534      27.30277360 
H      36.24581104      18.75953236      26.55299608 
H      30.02689740      25.51143233      14.55738183 
H      31.73153329      24.98997238      14.76039897 
H      30.63103399      24.09255180      13.65943938 
H      19.50387151      23.65096850      35.70660458 
H      18.60955525      24.77407497      36.79200152 
H      17.71682492      23.65702216      35.70789496 
H      36.78010904      25.61541237      25.62880286 
H      37.40240451      24.17417078      26.49844350 
H      36.17220873      23.98346080      25.20831799 
H      19.67813537      19.81981390      36.77583974 
H      18.70279445      18.86301851      35.61189442 
H      20.48241274      18.67418028      35.63834863 
H      32.45428001      24.83640562      32.58836892 
H      33.14768816      26.47788438      32.80597921 
H      31.37428740      26.21986773      32.94238620 
H      25.77071259      19.49322088      11.47139996 
H      24.95458608      17.95809055      11.91677023 
H      24.32361366      18.94436024      10.55310393 
H      14.83273455      33.45489544      21.70688804 
H      15.72562030      34.57990034      20.63569722 
H      15.75584025      32.80983870      20.31124017 
H      15.44785379      26.00737797      33.16093789 
H      14.21611331      24.99615838      32.33406492 
H      15.90823020      24.42447476      32.45271609 
H      11.06498754      27.04253820      20.67769254 
H       9.70082412      27.04519647      21.85051548 
H      10.68586881      28.52219007      21.61781358 
H      22.28715807      11.76308893      17.34518479 
H      22.11113472      13.20221919      16.31224452 
H      23.13848738      11.83019804      15.76617597 
H      12.72034114      23.48346570      17.29683744 
H      12.12673632      25.15074392      17.00337504 
H      13.88555434      24.78035421      16.90743799 
H      22.60770185      11.84251301      27.46379285 
H      21.31771721      11.09448054      28.46989337 
H      20.88355195      12.15588624      27.08323398 
H      16.75437567      14.89936870      32.47450229 
H      17.73821858      15.52878297      33.83186631 
H      15.94420724      15.52550626      33.94721800 
H      13.35602961      16.14465599      21.66452659 
H      13.65802155      14.57675856      20.83745784 
H      13.63501740      14.66496836      22.62739632 
H      12.69429987      13.90027032      26.83838396 
H      12.80513801      15.54223202      27.56472398 
H      12.33316330      15.35509427      25.84900338 
H      27.71511592      32.67963710      15.98188997 
H      27.04977086      33.84859686      14.78296493 
H      27.16346306      34.28914742      16.52061316 
H      31.81662556      14.14837909      24.83235182 
H      32.20551019      13.47531355      26.44042246 
H      31.63608974      12.38954953      25.14118900 
H      18.20488585      13.03651400      17.90202678 
H      17.99090603      12.75311847      19.65835095 
H      17.66621393      14.37069102      18.98018531 
H      28.95980605      35.07058194      24.94154774 
H      29.04158268      34.87631371      26.72387186 
H      29.65961902      33.58632324      25.65909889 
H      12.34371965      23.77156882      29.09807336 
H      11.31857792      22.40949481      29.66913470 
H      13.02902158      22.53633239      30.20904072 
