699
Properties=species:S:1:pos:R:3 i=71 optimized=T E=-11603.8200032171 pbc="F F F" jobid=279_84-Ag-79_9-000004-PBE
Au      33.15632378      25.37505169      26.04019586 
Au      31.99219502      29.47084363      21.52940197 
Ag      34.28295196      28.27068321      25.60908791 
Ag      29.79261271      15.10172294      19.68056392 
Ag      33.81624077      19.60361225      23.79532529 
Au      27.40030928      23.05554976      13.16865118 
Ag      18.21531661      33.12321914      28.09334978 
Ag      28.44997886      30.25505102      18.00940911 
Ag      24.95063886      21.25271219      23.28846876 
Ag      26.28860760      23.26905098      24.96057948 
Ag      28.16729154      25.09489737      23.69496824 
Ag      23.83032063      21.62476974      29.02236643 
Ag      23.37297858      27.91079711      26.96703598 
Ag      26.88829871      23.09742407      22.04671159 
Ag      22.42021570      19.56891556      27.39157862 
Ag      27.22381822      21.14936426      26.74169170 
Ag      22.07071287      21.50740849      22.75668805 
Ag      21.06658544      23.57318193      20.89545791 
Ag      27.62546100      25.30867308      26.60184936 
Au      20.02188365      24.03803195      26.67213481 
Ag      25.51257897      21.06992183      20.39366558 
Ag      24.29781790      25.77303896      28.80832590 
Ag      23.86804286      27.70732937      24.09545387 
Ag      26.18679478      27.65449828      27.63672161 
Ag      20.97422473      21.90008258      28.44436551 
Ag      22.90769488      23.72388670      27.19263510 
Ag      21.50912235      21.67889422      25.61080983 
Ag      19.58320902      19.85919297      26.89246282 
Ag      25.87317666      19.12351626      25.08385012 
Au      25.27204074      23.59075173      30.71013677 
Ag      23.01837318      25.39379260      19.60616556 
Ag      21.00750561      27.92178080      23.50867082 
Ag      26.66945742      27.39776371      24.76598641 
Au      22.64382283      21.35146401      19.90419767 
Ag      21.96924894      25.87042443      25.35314147 
Ag      27.16363640      25.48114312      29.46927339 
Ag      20.16229925      19.67944858      24.02939636 
Ag      25.88510598      25.14230302      20.21102969 
Ag      23.56835529      19.23358556      21.68455321 
Ag      22.39084094      23.91803896      30.02743582 
Ag      21.07810473      17.49936070      25.80794540 
Ag      21.52345484      27.64516140      20.59529786 
Ag      24.37662052      27.41114065      21.25607341 
Au      24.56991946      23.13568393      18.56003489 
Ag      28.62965130      23.16599607      28.46914409 
Ag      18.64252601      21.97733108      25.10373944 
Ag      26.75523394      21.26470303      29.61567203 
Ag      22.42577703      30.06561757      25.10668448 
Au      27.20912893      27.16543649      21.85621909 
Ag      21.88833152      19.74572105      30.26150899 
Ag      18.52723273      26.40310474      27.70180960 
Ag      23.23003399      21.75068181      31.86149936 
Au      21.61118603      23.38544267      17.97846882 
Ag      17.10401810      24.32204869      26.16830443 
Ag      27.44614297      22.87621196      19.13580059 
Au      23.89500942      17.18765051      26.33209686 
Au      23.32693283      17.43773361      29.24373013 
Ag      25.23891811      29.77384833      25.74978629 
Ag      21.69173864      17.27246186      22.90752883 
Ag      28.78358126      18.82970814      25.66642177 
Au      22.85263940      29.77781150      22.23913993 
Ag      25.33563802      25.35398544      23.10260394 
Ag      20.08350254      25.63518345      18.99444810 
Ag      29.54594296      27.14934279      25.40536079 
Au      19.47663392      24.27996038      29.57273019 
Ag      18.06851729      22.21614624      27.96678335 
Ag      20.05246284      28.38327729      29.26467787 
Ag      23.83172944      25.88050686      31.66820642 
Ag      21.07155521      26.30939854      31.11672917 
Ag      26.43151665      19.02218568      22.19311059 
Ag      24.73177117      19.49959920      30.79640480 
Ag      20.46888636      17.65794032      28.71064228 
Ag      28.83237979      24.88385992      20.77587191 
Ag      19.57112901      30.18919913      24.54418749 
Ag      25.73638484      29.57362059      22.84877226 
Ag      24.93619613      27.21677114      18.29205842 
Ag      28.42113894      20.81640584      20.97120381 
Ag      29.02408125      27.40097208      28.26690680 
Au      30.05998155      20.91350347      27.31487117 
Ag      18.17681201      23.87440501      20.33607457 
Ag      17.84209714      19.68837738      20.68820432 
Ag      25.61419219      27.78336520      30.50211150 
Ag      28.16682945      23.29793497      31.30067463 
Ag      21.93282982      30.22917460      28.01115272 
Au      21.87821326      24.11276843      32.86242484 
Ag      18.69169531      27.91179547      20.05353343 
Ag      16.41690409      21.99349776      21.69875958 
Au      30.46414200      25.06135117      27.18161358 
Ag      23.43409104      23.54174075      24.33854765 
Ag      20.04460725      29.99069732      21.62558099 
Ag      16.69943123      20.11455479      26.39364949 
Ag      26.76035441      17.03726306      26.87176575 
Ag      29.92197834      25.25421212      30.03735195 
Ag      17.60598093      28.43580586      25.88213690 
Au      16.23192019      26.32841165      24.29999730 
Ag      28.50554766      29.20223314      23.47512528 
Ag      27.84146671      26.93714396      19.04369704 
Ag      24.13099699      19.04928346      18.73815095 
Ag      27.41508084      16.83172934      23.98730649 
Ag      26.94751126      18.80116438      19.28648753 
Ag      26.02322046      21.35923597      32.53231096 
Ag      12.69273931      18.79664257      22.02693779 
Ag      23.14138149      21.10889866      16.98954685 
Ag      26.31173606      29.18435910      19.94964460 
Ag      20.08613375      19.58374300      32.44184021 
Ag      26.17940356      17.21846601      29.75874871 
Ag      29.30975227      18.75364787      22.78964411 
Ag      27.57126932      29.72367471      29.26483035 
Ag      15.30779370      22.46560616      27.46046433 
Ag      26.04089262      20.88456528      17.42576548 
Ag      24.64934622      23.76354087      33.52209200 
Ag      23.63054173      25.12518818      16.66477149 
Au      17.66078005      18.01523938      28.16573196 
Au      19.12336036      30.39910399      27.43201173 
Ag      23.47162985      29.45020490      19.41080126 
Ag      22.45649629      25.61756675      22.47171376 
Ag      16.24406258      20.15814768      29.38569581 
Ag      27.55460542      19.13629360      31.42991687 
Ag      29.15778668      28.99103631      20.64711660 
Au      16.56990221      24.53345570      28.97801650 
Ag      31.94048714      22.79093133      26.15336987 
Ag      16.76356149      21.65524498      18.85639423 
Ag      24.87192006      31.53542422      20.79525057 
Ag      21.96156011      31.73432297      20.30912039 
Ag      20.75934911      25.35106529      16.18838295 
Ag      24.29559642      31.88103748      23.86550525 
Ag      20.62059659      29.68207755      18.72367552 
Ag      23.19273703      15.02358036      21.65883229 
Au      30.30576525      22.60025459      19.70412982 
Ag      25.11354577      22.89183739      15.55185810 
Ag      18.76667829      23.58086093      17.38169823 
Au      28.88481077      20.67776045      18.12860404 
Ag      17.60979360      22.49876139      30.86362048 
Ag      17.18005798      28.73351561      28.76899159 
Au      27.90209829      16.82011057      21.09424854 
Ag      15.61660550      26.80234747      27.10730846 
Au      18.95684303      15.72688094      27.07967876 
Ag      19.71058094      15.52028032      24.05556896 
Ag      18.23738527      26.76059166      30.70426701 
Ag      20.28193370      15.39068234      21.26202604 
Ag      27.21600375      31.54420293      24.36185454 
Ag      24.85861985      15.19046916      28.27738015 
Ag      23.99648754      23.34631090      21.46926751 
Ag      20.23172506      21.15848732      16.39232619 
Ag      27.94238959      22.79690341      16.08847898 
Ag      31.37482526      20.46954063      21.71503012 
Au      26.76672696      31.74105383      27.39435255 
Ag      25.64333170      14.92976825      25.21878292 
Au      28.68780282      16.19992614      28.76935896 
Ag      26.07654865      14.88256105      22.30579421 
Ag      32.59620999      22.64901502      23.34266192 
Ag      25.53892787      30.41958986      31.42400390 
Ag      22.82921496      30.84759459      30.70029849 
Ag      24.28806129      16.90601163      31.91235139 
Ag      31.33437642      17.91281604      24.75986456 
Ag      17.09323721      26.01792085      18.59558524 
Ag      31.51709847      22.98359256      28.96048570 
Ag      29.37754992      16.05181802      25.92348426 
Au      15.63520942      29.19363329      23.92327473 
Ag      16.12774913      28.93011472      21.05351143 
Au      17.09633888      31.23299902      25.51869706 
Ag      29.38853565      24.81224316      17.92984273 
Ag      30.70895668      18.07296576      27.62345411 
Ag      18.62800474      17.49547397      30.89742749 
Ag      23.93218633      19.56074861      33.49477178 
Ag      18.07080698      30.67969451      19.73626849 
Ag      17.53002522      31.01340625      22.60945386 
Ag      14.21707250      27.11127971      22.42968048 
Ag      32.65128276      20.02051960      26.50901893 
Ag      24.81537493      25.58610552      25.97312254 
Ag      32.71720242      27.00775447      23.34085098 
Ag      24.83806976      20.06260618      14.94716251 
Ag      20.02806665      31.10605532      30.06827682 
Ag      31.76881782      27.64064014      27.23576256 
Ag      23.23796568      28.52531330      32.50097653 
Au      29.94029817      15.98256651      23.01891614 
Ag      22.46242289      17.03488717      34.38576612 
Ag      14.02101485      19.66901509      27.51211225 
Au      24.13054570      27.79173533      15.61637758 
Au      15.26304002      17.62205060      30.53426346 
Ag      25.69123365      25.60286824      14.68101416 
Ag      28.65723627      30.45297684      32.18461081 
Ag      22.75828626      30.04275548      16.76095784 
Ag      22.16459125      21.76075999      34.73799964 
Ag      31.11846162      28.12611069      30.24313576 
Au      19.37515806      14.15258638      29.56794496 
Ag      22.74497786      25.74916012      13.94628426 
Ag      16.19435540      15.20417032      28.00152718 
Au      25.35995956      33.43083075      29.39986210 
Ag      26.63069334      14.68808632      31.17609300 
Ag      28.50974820      13.59535467      24.11351374 
Ag      16.33846164      17.29679347      19.47858215 
Ag      16.20224400      17.23028547      23.31813293 
Ag      20.89311239      15.52309406      17.76554795 
Au      11.88953145      24.56488752      23.11278790 
Ag      14.71547991      29.94988941      26.81029257 
Ag      24.35564297      21.39274137      26.15046222 
Ag      15.02443703      19.91062730      20.43126692 
Ag      25.38227543      30.96013249      17.97752538 
Ag      27.77738094      19.97797446      15.28768684 
Au      30.05956967      26.99153057      22.52802672 
Au      31.04294391      24.88069312      24.29638623 
Ag      31.70240388      24.84197681      21.53079285 
Au      20.53547719      23.80554361      23.78399656 
Ag      25.21862399      15.06791992      16.09771713 
Ag      30.80696464      29.61187781      25.13312797 
Au      25.75697085      23.43553234      27.82924347 
Au      27.03220934      27.62315582      16.44557928 
Au      20.91011958      31.38695068      33.11101282 
Ag      17.68744497      24.04552852      23.27962176 
Ag      22.99982161      19.35294195      24.51053952 
Au      27.79526000      20.99119976      23.85462440 
Ag      19.60367374      25.87389198      21.91852168 
Ag      25.06342439      30.72086002      14.90007483 
Au      25.26696317      19.31184066      27.93580211 
Ag      19.08825820      26.12210728      24.82919430 
Ag      20.55100955      28.14180551      26.38112825 
Au      21.45562975      26.04655020      28.22950781 
Ag      29.11201300      23.02606242      25.52559750 
Ag      19.22644700      21.75275282      22.20429494 
Au      24.58021660      17.06588912      23.49018310 
Ag      22.87631823      28.14832578      29.79378556 
Ag      20.73805444      19.48131852      21.16370103 
Ag      20.43034689      22.16461669      31.27777306 
Ag      24.78319325      30.05101295      28.68339187 
Ag      18.10502996      28.21353039      22.94258760 
Ag      28.16589099      18.99535584      28.56791606 
Au      19.07271763      20.10476847      29.77504933 
Ag      29.78205788      22.77715591      22.66768141 
Ag      19.67020555      21.58394214      19.27359138 
Au      18.24869530      17.81713841      25.22545058 
Ag      15.80671058      22.20086348      24.57195605 
Ag      16.69861727      26.10595580      21.40535094 
Ag      26.48687026      24.95246805      17.34820647 
Ag      28.09088410      29.45909231      26.32185969 
Ag      17.23929361      19.90092403      23.51929959 
Ag      18.89179640      17.66062826      22.40297646 
Ag      30.72531108      20.72194947      24.48417869 
Ag      22.11395964      27.42727212      17.73038104 
Au      21.22323001      19.34601637      18.33164812 
Ag      22.24517525      17.19527669      19.95154893 
Ag      21.96381345      15.43124380      27.61974706 
Ag      19.09184621      24.51211368      32.37384526 
Au      26.57758393      25.52951003      32.33769473 
Ag      14.82797453      24.27472556      22.78552164 
Ag      29.65354270      20.83612497      30.17676876 
Ag      23.80390850      32.01618784      26.75145482 
Ag      22.59561093      15.18728360      24.72650254 
Ag      25.03342349      16.99284205      20.60150864 
Ag      28.38491832      27.70611664      31.13512597 
Ag      19.39314216      17.45774217      19.57527653 
Ag      27.70415833      31.23591504      21.57763798 
Ag      15.33097252      23.99691609      19.93608375 
Au      21.44097162      17.13918212      31.39144738 
Ag      21.29779715      32.08832939      23.17269654 
Ag      14.18366767      24.51629637      25.56458212 
Ag      22.26777548      23.03344331      15.03509979 
Ag      30.63598803      26.78769771      19.61910713 
Au      18.42919666      19.43272777      17.80239239 
Ag      22.87766773      18.30814526      16.27388609 
Ag      15.55298890      17.49406925      26.16316456 
Ag      30.29960642      29.95128898      28.03481919 
Ag      29.88312562      18.43051771      19.87677065 
Au      13.81346963      21.59939830      22.58350226 
Ag      30.44599664      17.64806590      30.71517801 
Ag      26.71687951      15.97854955      18.59036624 
Ag      20.81010886      32.28914533      26.23266664 
Ag      19.26063859      27.78236800      17.07348016 
Ag      25.86105413      18.04264096      16.69611881 
Ag      14.53627626      19.55337895      24.47819790 
Ag      19.11406963      33.22400386      20.84688356 
Au      23.67652462      22.26869957      12.60197154 
Ag      34.57704523      22.67580099      27.45575528 
Au      29.01570979      32.66312719      29.18211224 
Au      19.36413237      31.13319913      16.48648465 
Au      23.79191353      15.09830633      18.90047979 
Au      13.83625565      27.11608365      19.47425785 
Ag      20.92442800      26.64791260      34.21978887 
Ag      20.07767197      28.71504326      32.06448886 
S      20.59531549      15.91016826      33.35589425 
S      28.52963152      32.23494421      19.44640158 
S      24.20437316      22.69330101      35.71087293 
S      24.23556049      18.18492641      35.53014689 
S      12.49462919      18.08349637      24.31072873 
S      32.39366817      17.35329614      29.29604689 
S      31.43950841      14.85843038      21.43875356 
S      29.63877834      18.91147408      16.60474940 
S      28.35881500      21.76934365      33.28665285 
S      23.04864378      27.68336075      34.81975006 
S      13.47342403      30.07672275      24.70060070 
S      16.37470448      18.22592033      17.22029639 
S      32.68961520      23.19810368      19.95126703 
S      26.69368742      30.66021041      33.59329129 
S      22.95956284      32.45682979      32.66057245 
S      17.25688338      31.41342156      17.50626868 
S      11.46730738      22.25009335      22.92639355 
S      25.12430491      13.16137910      26.88403280 
S      33.66987061      29.21839562      27.73766954 
S      28.51781174      26.52903216      33.40851008 
S      23.68684564      24.54226024      11.96995674 
S      27.59544780      25.39981710      13.10762600 
S      19.12830511      33.40059864      30.31031663 
S      28.95753998      17.47363523      32.61471874 
S      21.21022177      34.12076168      24.61853985 
S      30.87816557      32.36145530      27.76035683 
S      29.05005931      28.92701599      16.02872957 
S      33.60200812      17.20047923      24.05629148 
S      34.89075546      21.75377363      23.49087957 
S      19.36883040      13.68109996      25.68866327 
S      20.84395707      33.64864324      19.21695589 
S      12.72904304      19.34721024      19.68160212 
S      18.84516888      30.32949867      33.54953062 
S      31.58550455      31.05714032      23.24762932 
S      35.13842515      27.44184053      23.51589832 
S      30.94022633      30.32803553      31.38312348 
S      23.18106273      13.19488195      23.34053201 
S      32.26178038      19.17944128      19.77812892 
S      28.56088027      14.61040457      17.66003391 
S      15.33937117      30.36033760      29.11219533 
S      31.73378827      21.81098957      31.14659021 
S      20.59105682      27.02217961      14.37379647 
S      17.02233874      26.95006604      16.29845431 
S      27.47408999      12.86409847      22.04588606 
S      16.74752444      33.55801476      26.21544154 
S      15.24438607      21.76647458      31.04768395 
S      21.09481753      16.70801312      15.64892966 
S      24.76818561      28.84701372      13.42188523 
S      19.92264748      22.43921027      14.29370164 
S      21.30908024      31.27454454      15.16398465 
S      23.36812243      33.97247126      28.25502279 
S      13.56204583      17.63298228      28.89512574 
S      24.30560399      33.61138037      22.04691123 
S      27.52143594      20.71299714      12.92013785 
S      16.36724535      23.11284126      16.87483850 
S      25.98061678      16.73692811      14.54457527 
S      17.08495848      14.37267384      30.11308630 
S      28.56634062      14.02750982      29.90066881 
S      27.33869426      33.34110299      30.71557807 
S      32.70815697      28.18597808      19.66948657 
S      25.03549983      14.80372693      32.97841459 
S      14.28148976      29.43272098      19.45118494 
S      13.30109553      25.94976769      27.43108805 
S      34.76945314      20.29871494      27.77914505 
S      30.36251922      23.50464022      16.05845382 
S      18.63978011      25.80649297      34.43504706 
S      35.26595246      24.98081940      27.15144151 
S      19.94771693      20.75718801      34.61009589 
S      32.23149776      25.93625626      30.61824704 
S      23.43438404      19.94229559      12.90089205 
S      17.10489930      33.43023076      22.16812796 
S      15.78725048      26.27219733      30.55426377 
S      11.83265846      26.91255776      23.15819619 
S      24.40194371      13.24037631      17.44553023 
S      13.09374816      24.88384040      19.28391218 
S      21.64846553      13.58804650      29.27160959 
S      16.67803737      17.63641373      32.42414215 
S      15.93649752      15.78452443      21.32998651 
S      14.94137056      15.11006620      25.89957783 
S      25.41352938      32.69997686      16.21624972 
S      29.90084465      13.62150312      26.10439437 
S      20.21495211      13.80212830      19.35215831 
S      26.91229633      33.61812972      25.70378208 
S      12.95014629      21.86673916      26.97627798 
C      21.14613966      14.16894078      33.16251458 
C      30.29571077      32.72512706      19.60308923 
C      23.62045518      24.04021863      36.82129634 
C      23.52015507      19.06131681      36.97812508 
C      11.06204970      19.02703902      24.96958184 
C      32.56507148      15.53557709      29.07224948 
C      31.43834590      13.04432863      21.72713218 
C      31.24304207      19.53477842      15.96743351 
C      28.23873146      22.71186673      34.86077810 
C      22.73128793      29.12621517      35.91417596 
C      13.46434563      31.85855959      24.25392473 
C      16.91214364      16.85784540      16.11442466 
C      33.23922919      24.10799434      18.45686498 
C      26.56050136      32.41026862      34.12388942 
C      22.49024798      34.13726129      32.08946089 
C      17.07681290      33.24138872      17.46534547 
C      10.70883334      22.16629868      21.25492222 
C      26.61689543      12.21087598      27.36142772 
C      34.80683349      28.38617923      28.92017926 
C      27.87671448      27.52393719      34.81179159 
C      22.31848711      24.63972484      10.74386492 
C      27.05691435      25.92384926      11.43431423 
C      17.62980032      33.22911743      31.36584399 
C      29.79643984      18.32343704      34.01245800 
C      19.65013074      35.05736732      24.38573326 
C      32.35319816      32.67346106      28.80734604 
C      28.79033858      29.95664858      14.53201868 
C      34.53901587      16.76250632      25.57575626 
C      35.62729288      21.69360072      21.80747757 
C      17.78026971      12.84739057      25.30309982 
C      21.68301975      35.18965886      19.76869218 
C      12.71259549      17.77487818      18.73100949 
C      18.88802224      29.73896694      35.28700078 
C      33.23328127      31.72815624      23.70703733 
C      35.60762839      28.86910459      22.45793495 
C      31.96594831      30.02303087      32.88284187 
C      21.70966556      12.16251279      22.96731251 
C      33.34795839      17.81084737      20.33329710 
C      28.08633283      12.85580665      17.95252809 
C      14.02999537      29.58372859      30.14134567 
C      33.11225432      20.60546066      31.05689814 
C      19.28302196      26.34292016      13.27742434 
C      15.80343660      28.31261050      16.16994537 
C      26.46217908      11.38624999      22.45963905 
C      15.12629320      33.75876119      27.05865394 
C      15.00225654      20.91848079      32.66073907 
C      21.76982376      15.53908859      14.40295894 
C      23.24376891      29.23869665      12.47495064 
C      19.88664484      21.27785022      12.86764333 
C      21.75354885      33.04764199      15.36081429 
C      23.83600234      35.42138531      27.22904944 
C      12.05471562      18.10695247      29.84084426 
C      25.82182557      34.64451271      22.10201342 
C      29.20683577      20.45140947      12.22713434 
C      16.25385970      21.99297441      15.42277775 
C      27.73568835      16.28244100      14.23350043 
C      16.53403384      12.61990443      30.23044830 
C      29.86148822      13.89492868      31.19587944 
C      27.71214973      35.12024444      31.00208620 
C      32.63909122      29.32332629      18.22787044 
C      26.13270875      15.22929362      34.39316641 
C      12.93356109      30.20683942      20.43065383 
C      12.04311696      27.12521746      26.80109675 
C      36.25137790      19.90041373      26.76521200 
C      30.74757077      24.67050813      14.69208872 
C      18.70358055      24.58928452      35.81417401 
C      36.50678153      24.79849467      25.80611551 
C      19.79944661      19.49213989      35.93515369 
C      32.41332318      25.69755580      32.43165345 
C      24.42804549      19.14225311      11.58215507 
C      15.70842686      33.51409182      20.97520752 
C      15.28594700      25.47147861      32.12609494 
C      10.71063968      27.29652018      21.75567317 
C      22.86494306      12.59260981      16.67879783 
C      12.90324595      24.61013645      17.47767299 
C      21.59830997      12.05279110      28.26872842 
C      16.46774348      16.02844993      33.27805132 
C      14.18787244      15.22236421      21.27278186 
C      13.15862928      14.94266135      26.30698703 
C      27.14469476      33.25589681      15.94504566 
C      31.62617083      13.42952222      25.49812322 
C      18.45486552      13.40190804      18.99259431 
C      28.50887477      34.51252368      25.83936961 
C      12.06415693      22.44108652      28.48199316 
H      22.22404871      14.10611156      32.97746269 
H      20.89796051      13.64266506      34.09178654 
H      20.59799295      13.72740875      32.32054386 
H      30.69500024      32.94099920      18.60597330 
H      30.33557065      33.63301422      20.21656364 
H      30.89049080      31.94019045      20.08563650 
H      24.50451582      24.54262393      37.23116483 
H      23.01172847      24.77490609      36.28261690 
H      23.03985914      23.60034265      37.63962360 
H      23.36034807      18.33359350      37.78161386 
H      24.24341236      19.82035144      37.29711026 
H      22.57634168      19.55842503      36.73266250 
H      11.10511955      18.98456107      26.06464600 
H      11.08309708      20.07460606      24.65081389 
H      10.14125479      18.54836931      24.61725049 
H      33.36264187      15.36969262      28.33807402 
H      32.85495497      15.08190136      30.02663993 
H      31.63647548      15.08213557      28.70806713 
H      30.42208838      12.65918884      21.86678720 
H      31.89923735      12.56728784      20.85412819 
H      32.04290843      12.83448408      22.61670715 
H      31.18036392      20.60102402      15.71927317 
H      31.99758673      19.38207943      16.74975548 
H      31.50266351      18.95289907      15.07517818 
H      27.66890614      22.12785844      35.59111949 
H      29.26010422      22.87480601      35.22520187 
H      27.75193282      23.68013368      34.69729251 
H      22.07128640      29.86019745      35.43521706 
H      22.28919979      28.77961981      36.85509071 
H      23.69916385      29.60022705      36.11800163 
H      12.78110416      32.38447646      24.93088766 
H      14.46810289      32.29384533      24.31747076 
H      13.09256114      31.94479794      23.22596820 
H      17.07550229      17.27605919      15.11436266 
H      17.84171271      16.39540985      16.46369932 
H      16.11104187      16.11087889      16.07531946 
H      32.54403864      24.91744950      18.20345267 
H      34.23259148      24.52228266      18.66530153 
H      33.28834824      23.40066478      17.62114204 
H      26.88364880      33.08702177      33.32584041 
H      25.51203565      32.61428661      34.37070138 
H      27.19009102      32.55144320      35.00991274 
H      21.60160559      34.10838409      31.44858293 
H      22.29688592      34.75834129      32.97124395 
H      23.33852612      34.53869544      31.52086629 
H      16.13701573      33.48924205      17.97233362 
H      17.91374628      33.73916590      17.96812858 
H      17.02098220      33.56480737      16.42016812 
H      11.29456131      22.73846000      20.52730541 
H      10.67070442      21.11234497      20.95237699 
H       9.69440249      22.57542663      21.32376128 
H      27.48564732      12.85431614      27.52526881 
H      26.39599956      11.66494553      28.28588431 
H      26.84036859      11.49897599      26.55778263 
H      35.73708543      28.96461104      28.95872232 
H      34.33042351      28.37763422      29.90789477 
H      35.02202141      27.35549974      28.61664945 
H      27.83895378      26.87523383      35.69478806 
H      28.56101596      28.36126237      34.99209466 
H      26.87918118      27.91975570      34.60007106 
H      22.23039924      25.68619169      10.42790518 
H      22.56943789      24.01735653       9.87771978 
H      21.37036125      24.30864290      11.17906279 
H      26.12341616      25.43173070      11.14278273 
H      26.90004602      27.00866064      11.47408401 
H      27.85482629      25.68698626      10.72161254 
H      17.95071927      32.99405197      32.38756684 
H      17.09286154      34.18440188      31.35406447 
H      16.97172537      32.43281066      31.00176905 
H      30.74858772      17.82299140      34.21921568 
H      29.96177615      19.38267722      33.78644329 
H      29.14136533      18.24303300      34.88817050 
H      18.77784990      34.40215304      24.30810890 
H      19.51784941      35.72849966      25.24230116 
H      19.73923845      35.64840366      23.46622255 
H      32.23195379      32.21253491      29.79388796 
H      33.21354073      32.22279327      28.29843803 
H      32.49153686      33.75597018      28.90314504 
H      29.57539972      30.72086577      14.48874091 
H      28.86590579      29.30171061      13.65607033 
H      27.80310530      30.43714807      14.53440092 
H      34.32399874      15.71114522      25.80143362 
H      35.61073754      16.87565571      25.37720497 
H      34.25046842      17.38335900      26.43207923 
H      34.87487501      21.44172815      21.05240131 
H      36.03580867      22.68703885      21.58781965 
H      36.43542546      20.95389672      21.79944289 
H      17.35245145      12.44341703      26.22833601 
H      17.05896579      13.53025219      24.84443014 
H      18.00403771      12.02509886      24.61242814 
H      22.47635393      35.40637444      19.04328135 
H      20.95832680      36.01093027      19.77568458 
H      22.13247548      35.06642902      20.76015342 
H      12.98933944      18.00960015      17.69670855 
H      13.42658600      17.04637384      19.12966199 
H      11.70051055      17.35591500      18.75988487 
H      18.81747348      30.59966853      35.96093430 
H      18.01943661      29.08348065      35.42118725 
H      19.79653600      29.16592064      35.49829706 
H      33.88894247      30.94446201      24.10530718 
H      33.69476262      32.19888946      22.83183953 
H      33.06213177      32.48425546      24.48304002 
H      35.88895511      28.47019056      21.47620321 
H      34.77542375      29.56891494      22.32386305 
H      36.46432901      29.38259483      22.90796466 
H      31.63894152      29.12383177      33.41497612 
H      33.00826386      29.89941206      32.56600607 
H      31.89003125      30.89170477      33.54639817 
H      21.70831044      11.32124646      23.67058071 
H      20.78459013      12.73870656      23.09156942 
H      21.77921626      11.79100672      21.93933884 
H      33.43033522      17.08151012      19.51904934 
H      34.33922896      18.22407385      20.55582519 
H      32.96208951      17.30548207      21.22305408 
H      27.28446931      12.58907082      17.25412050 
H      28.96546527      12.22928079      17.76407683 
H      27.73851529      12.70259470      18.98012763 
H      13.08484444      30.11189103      29.97387659 
H      13.91840221      28.51977534      29.90537594 
H      14.32712952      29.68876312      31.19148773 
H      33.01577453      19.90798600      31.89769494 
H      33.11108439      20.03927030      30.12123784 
H      34.05860767      21.15240579      31.13947795 
H      19.37165828      25.25353610      13.19264010 
H      18.30851497      26.59345353      13.71626654 
H      19.38248742      26.80922147      12.29049998 
H      15.84786260      28.99464460      17.02313876 
H      16.01426813      28.87738997      15.25428789 
H      14.80025822      27.87413305      16.11006969 
H      27.11780059      10.59691665      22.84318544 
H      25.68731055      11.62968791      23.19443434 
H      25.98135460      11.04675897      21.53447519 
H      14.33974312      33.79846735      26.29659665 
H      14.92736975      32.93735769      27.75576155 
H      15.15089594      34.70982207      27.60360033 
H      14.67780273      21.67007791      33.39013076 
H      14.22743261      20.15071825      32.55115518 
H      15.92323072      20.44053342      33.00752378 
H      21.88897475      16.08848849      13.46151596 
H      22.74726710      15.13945325      14.70454582 
H      21.06196194      14.71561889      14.25371096 
H      22.47011155      29.67550968      13.11530902 
H      23.51095015      29.94223764      11.67770899 
H      22.86683037      28.30691678      12.03608153 
H      18.84560562      20.97477342      12.70427865 
H      20.26235847      21.79582331      11.97745003 
H      20.50766568      20.39578943      13.05154557 
H      22.77741177      33.17953601      14.98991627 
H      21.05852449      33.64776254      14.76329110 
H      21.70198956      33.35197156      16.41228945 
H      23.89357333      36.30605840      27.87233248 
H      24.79425013      35.25068143      26.72332202 
H      23.04352336      35.54719212      26.47958935 
H      11.84182879      17.32680656      30.58042735 
H      12.18827427      19.06974029      30.34369549 
H      11.22252293      18.17441152      29.12998623 
H      26.07427964      34.96057434      21.08402795 
H      25.61057150      35.52242801      22.72392068 
H      26.66108674      34.08820858      22.53756929 
H      29.97345846      20.89835568      12.86769248 
H      29.37333457      19.37017197      12.15261614 
H      29.25082020      20.89797028      11.22730647 
H      15.25253015      21.54800526      15.40392045 
H      16.41580876      22.59295863      14.51996314 
H      17.00883590      21.20031632      15.47663026 
H      28.22402798      15.91163665      15.14156004 
H      27.75380400      15.50717439      13.45908716 
H      28.26132219      17.17589967      13.87497107 
H      15.44867900      12.62509032      30.38612935 
H      16.77128914      12.06245732      29.31978784 
H      17.02670222      12.15128012      31.08993315 
H      30.82404491      13.72067897      30.70196023 
H      29.91263482      14.80317600      31.80708608 
H      29.61655379      13.03406233      31.82890482 
H      27.75289889      35.67467987      30.06030952 
H      26.92498859      35.53132695      31.64481622 
H      28.67979269      35.17936713      31.51354748 
H      32.91955629      28.74003444      17.34262017 
H      31.63281553      29.73165681      18.08221547 
H      33.35947654      30.13513174      18.37636348 
H      26.88831897      15.96751235      34.10177380 
H      25.51638063      15.63810489      35.20217703 
H      26.62552124      14.30894293      34.72649765 
H      12.89777859      29.81422008      21.45352494 
H      13.14165867      31.28345841      20.46018834 
H      11.97674560      30.03603811      19.92543896 
H      12.36115205      27.62256779      25.88095349 
H      11.11681085      26.57381804      26.60227295 
H      11.86195607      27.87890275      27.57708692 
H      36.16467670      20.29254946      25.74584165 
H      37.13166343      20.33126980      27.25550851 
H      36.35629539      18.80995317      26.73215459 
H      30.12779818      25.57097473      14.74297143 
H      31.80521001      24.94656045      14.78178559 
H      30.57511742      24.17501847      13.72993114 
H      19.44172901      23.80162323      35.62709357 
H      18.94577871      25.11671275      36.74334301 
H      17.71083216      24.13264429      35.90256566 
H      36.66621105      25.77763687      25.33946748 
H      37.43686984      24.44454970      26.26626316 
H      36.17041071      24.08109518      25.04942839 
H      19.91823879      19.97475946      36.91202688 
H      18.79629394      19.05495652      35.86644695 
H      20.54494768      18.69436490      35.82076746 
H      32.54139330      24.62321869      32.61447562 
H      33.30538801      26.23910737      32.76691713 
H      31.53186797      26.05558222      32.97496323 
H      25.42220027      19.59516501      11.50818260 
H      24.52960704      18.08452007      11.85376729 
H      23.89035607      19.23736311      10.63241894 
H      14.78014777      33.52478744      21.55919704 
H      15.78065937      34.44160598      20.39651975 
H      15.69886010      32.65271904      20.29787811 
H      15.05335203      26.26683958      32.84396198 
H      14.39686043      24.86090638      31.93179212 
H      16.08663508      24.83864177      32.52686399 
H      11.08202453      26.87044221      20.81716949 
H       9.71127748      26.90800093      21.98021672 
H      10.66506058      28.38899213      21.67179020 
H      22.30443366      12.05078792      17.44887102 
H      22.23547333      13.39553435      16.28094531 
H      23.15305094      11.91032984      15.87052041 
H      12.57333236      23.57213593      17.34750135 
H      12.13887704      25.29169882      17.08973117 
H      13.85356639      24.75246369      16.95161444 
H      22.61584078      11.88644890      27.89150369 
H      21.29299944      11.22007836      28.91178813 
H      20.90565146      12.15942669      27.42542186 
H      16.48539609      15.20152798      32.56001705 
H      17.30523630      15.92297376      33.97823624 
H      15.51893910      16.04282239      33.82588908 
H      13.48819737      16.06576939      21.33517703 
H      14.01559462      14.66103316      20.34739595 
H      14.02800305      14.56349438      22.13464983 
H      12.93009449      13.87450001      26.39687126 
H      12.92154984      15.45764466      27.24377466 
H      12.57600077      15.38707608      25.49172821 
H      27.85295994      32.42116515      15.96534316 
H      27.20036718      33.76922053      14.97859990 
H      27.39951416      33.95036316      16.75358298 
H      31.87424042      14.17725833      24.73640387 
H      32.29287431      13.55509931      26.35979091 
H      31.75422820      12.42087797      25.08937524 
H      18.36703263      13.07448004      17.95082958 
H      18.15813846      12.58197730      19.65746913 
H      17.79796396      14.26010788      19.17332425 
H      28.55741523      35.22908456      25.01033678 
H      28.53696415      35.05047177      26.79426481 
H      29.36261488      33.83017003      25.79057751 
H      11.96603552      23.53255619      28.41787523 
H      11.07271325      21.97407760      28.50016235 
H      12.62178026      22.17934620      29.38848740 
