699
Properties=species:S:1:pos:R:3 i=157 optimized=T E=-11498.0938060081 pbc="F F F" jobid=279_84-Ag-69_9-000004-PBE
Ag      33.14523141      25.44929590      25.97862882 
Ag      31.96785199      29.12681205      21.48743406 
Au      34.54695904      28.04912814      25.37905432 
Ag      29.79923140      15.17605194      19.68369969 
Ag      33.84697587      19.66880417      23.70360193 
Ag      27.23422506      23.73535305      13.59056420 
Ag      18.31762565      33.17526290      28.05527639 
Ag      28.38424762      30.83017877      18.40514383 
Au      24.92185578      21.23879292      23.30129351 
Ag      26.28637298      23.25033961      24.96056853 
Ag      28.17740023      25.06730258      23.66351318 
Au      23.81747277      21.59548271      29.00903441 
Au      23.30565496      27.85758016      27.02693950 
Ag      26.87856097      23.04937614      22.04927675 
Ag      22.39449813      19.54506031      27.38809524 
Ag      27.19520130      21.11211743      26.75514685 
Ag      22.00882349      21.49754767      22.73187936 
Ag      21.03010598      23.56717219      20.88033989 
Ag      27.65878563      25.26185856      26.58598829 
Ag      19.96736398      23.99545328      26.70915365 
Ag      25.48079413      21.04698413      20.40732684 
Ag      24.24855612      25.72418394      28.85287173 
Ag      23.84089087      27.68442997      24.11968052 
Au      26.16442869      27.52382906      27.59987350 
Ag      20.90667177      21.84730584      28.44096548 
Au      22.87425644      23.69661970      27.21148790 
Ag      21.47017358      21.66413836      25.60606424 
Ag      19.53016968      19.82846772      26.86308586 
Au      25.83076274      19.07191499      25.14508943 
Au      25.20834981      23.57330704      30.75073815 
Ag      22.98721393      25.36600849      19.62015044 
Ag      20.97084302      27.93941877      23.58253642 
Ag      26.69577327      27.35121429      24.73962308 
Au      22.56531559      21.35945733      19.86047852 
Ag      21.91918640      25.85149415      25.40761930 
Au      27.17500870      25.41935272      29.48142159 
Ag      20.11362971      19.64709321      24.01407800 
Ag      25.88325678      25.08147035      20.21323148 
Au      23.46972706      19.21721848      21.67919896 
Ag      22.32260818      23.85950893      30.04797126 
Au      21.04093351      17.45534330      25.79859188 
Ag      21.55773237      27.64173663      20.70553263 
Au      24.38505281      27.42608615      21.27103204 
Ag      24.52969545      23.11099482      18.57533659 
Ag      28.62626647      23.14466154      28.47465018 
Ag      18.61564826      21.93822855      25.11015795 
Ag      26.67712239      21.26609836      29.64001083 
Ag      22.38426502      30.01727252      25.15697612 
Ag      27.20289542      27.15282064      21.86126831 
Au      21.83762007      19.73391408      30.23151168 
Ag      18.48759890      26.34469369      27.74507623 
Ag      23.21193034      21.72122134      31.91822517 
Ag      21.57106917      23.40680159      17.97918548 
Ag      17.06857562      24.32467525      26.21591857 
Ag      27.45143285      22.83149874      19.14070481 
Ag      23.90028926      17.12705247      26.33568384 
Ag      23.25374336      17.43602818      29.21804014 
Ag      25.20015648      29.70495114      25.79061675 
Au      21.55910302      17.26883689      22.87986624 
Au      28.72975868      18.75295923      25.69805237 
Ag      22.86982349      29.78713007      22.28608363 
Au      25.32981298      25.34398169      23.10017260 
Ag      20.07155988      25.64767180      19.03309445 
Ag      29.62599234      27.15789774      25.32863402 
Au      19.36671656      24.17513507      29.57723998 
Ag      18.00917298      22.16547740      27.94530543 
Ag      19.94074444      28.31129658      29.36795922 
Ag      23.70997060      25.83915259      31.73266681 
Ag      20.91427169      26.17249908      31.12356629 
Au      26.36790187      18.98002384      22.20218127 
Ag      24.67989939      19.51025592      30.82186654 
Ag      20.37458041      17.71064309      28.65249087 
Au      28.82618547      24.84523474      20.75943488 
Ag      19.51138530      30.21689928      24.64114447 
Ag      25.75434654      29.54592704      22.88198520 
Au      24.96999935      27.15617762      18.35478422 
Au      28.42163841      20.77995691      20.94080106 
Ag      29.06046306      27.35364821      28.24676588 
Au      30.01339030      20.84768767      27.30719502 
Ag      18.14899292      23.90454446      20.36686325 
Ag      17.74639024      19.71143803      20.60395579 
Ag      25.59615823      27.68472825      30.51535127 
Ag      28.12436862      23.36504121      31.34027169 
Ag      21.87082328      30.16501968      28.10025920 
Au      21.79471987      24.03658603      32.89390618 
Ag      18.65543232      27.93843472      20.19305473 
Au      16.30059030      21.96364629      21.69651842 
Au      30.50529361      25.08476032      27.12545725 
Au      23.39911220      23.50790018      24.34889875 
Au      20.05715364      30.04998476      21.74378874 
Au      16.64699041      20.06763285      26.33495351 
Ag      26.68041445      16.93352234      26.97663442 
Ag      29.97540969      25.24154929      30.00637932 
Ag      17.56935362      28.42070102      25.91040942 
Au      16.17549745      26.37470488      24.36129180 
Ag      28.54616499      29.17290178      23.46415547 
Ag      27.79545465      26.91407278      19.01990538 
Au      24.08620269      19.08867707      18.75463462 
Ag      27.29551086      16.79973305      24.03495201 
Ag      26.93971663      18.71234225      19.29756746 
Ag      26.10071778      21.37302924      32.60215112 
Ag      12.62246445      18.88960949      21.91864441 
Au      23.11803907      21.15028872      16.92267709 
Ag      26.29812889      29.26492310      19.93389195 
Au      21.15982583      19.88434774      32.92482818 
Ag      26.06086017      17.11275629      29.81296500 
Ag      29.22223241      18.67176756      22.78264044 
Au      27.56659473      29.66520902      29.19753403 
Ag      15.26625649      22.45202367      27.41797141 
Au      26.06662240      20.85314691      17.46690961 
Au      24.60538557      23.72826596      33.55082157 
Ag      23.55011217      25.21189369      16.72352662 
Ag      17.55261244      17.96797369      28.10918726 
Ag      19.04687937      30.38945485      27.54744816 
Ag      23.52201571      29.47424488      19.40114612 
Ag      22.44476534      25.60705541      22.52233348 
Ag      16.13215917      20.19037163      29.22413318 
Au      27.44279671      19.10237999      31.36640111 
Au      29.08301722      28.94020119      20.63838414 
Ag      16.47471481      24.51406885      29.05397685 
Au      31.93396845      22.78680248      26.05748394 
Au      16.68623411      21.76010019      18.83893776 
Au      24.85172659      31.60747737      20.91264101 
Ag      21.96941398      31.79292054      20.33978498 
Ag      20.69826056      25.50865621      16.22835966 
Ag      24.31552921      31.81331911      23.99537369 
Au      20.64636050      29.67512829      18.92538184 
Ag      23.09660711      14.98802353      21.71181992 
Ag      30.35643813      22.53218174      19.64180882 
Ag      25.13377457      22.95494376      15.67375789 
Ag      18.70044861      23.68149708      17.42850079 
Au      28.91258479      20.52269172      18.14726241 
Ag      17.51861679      22.40523132      30.85190798 
Au      17.15268644      28.64803721      28.78512783 
Ag      27.78695318      16.68412443      21.14998049 
Ag      15.58414102      26.74524965      27.15833690 
Ag      18.96383920      15.68169183      27.03504333 
Ag      19.58459169      15.47133340      24.03749392 
Ag      18.05633261      26.60183902      30.67364982 
Au      20.22689184      15.42603260      21.21979443 
Ag      27.21940172      31.47886164      24.44191491 
Ag      24.75611095      15.04795547      28.34279569 
Ag      23.96489950      23.32215993      21.46234363 
Au      20.14497101      21.26647857      16.42357417 
Ag      27.97711416      22.66672107      16.22480504 
Ag      31.35401602      20.41016123      21.65920380 
Ag      26.73552915      31.72418225      27.40809549 
Ag      25.53626316      14.87273618      25.22153485 
Ag      28.67729461      16.18065639      28.88259369 
Au      25.92693593      14.88703155      22.31583932 
Au      32.53031947      22.52118686      23.27453754 
Ag      25.74954879      30.40064805      31.39715087 
Ag      22.97520084      30.89251757      30.82043925 
Ag      24.02589971      17.01053049      31.94353641 
Au      31.24226530      17.88210794      24.74210675 
Ag      17.02266278      26.02599914      18.62834256 
Au      31.58548107      22.87490802      28.78649742 
Au      29.29969484      16.02773770      26.00076974 
Ag      15.52841219      29.18790773      23.98631450 
Ag      16.05040797      28.95778273      21.10195459 
Au      17.01476368      31.19135482      25.61851204 
Ag      29.35619849      24.80043198      17.92119045 
Ag      30.69228593      18.00545983      27.66584271 
Ag      18.41102299      17.40178045      30.76709570 
Ag      24.05586017      19.57957284      33.58536355 
Ag      18.08799294      30.75362216      19.79037471 
Au      17.45995405      30.98275823      22.67202505 
Ag      14.13564293      27.05435501      22.42921770 
Ag      32.56909748      19.94979160      26.39801726 
Ag      24.79367329      25.53642206      25.98051690 
Ag      32.78271300      26.76547242      23.23623968 
Ag      25.05284953      20.10330586      14.97997993 
Ag      20.14382509      31.06660345      30.16060771 
Ag      31.75971918      27.68937995      27.20053366 
Au      23.73747874      28.55695277      32.56639777 
Ag      29.83980265      15.84727273      23.07962945 
Ag      22.29630014      17.25762681      34.41041429 
Ag      13.87450995      19.79602974      27.30947406 
Ag      24.12978417      28.08890786      15.82838760 
Ag      15.18987987      17.51653860      30.13843038 
Ag      25.39088331      25.77361409      14.74900617 
Ag      28.83638676      30.62089461      31.93735718 
Au      22.57079166      30.26194239      16.88605308 
Ag      22.29275879      21.93197947      35.02158668 
Ag      31.18815549      28.23359348      30.34457170 
Ag      19.98859059      15.06568988      29.81558264 
Au      22.69984908      25.46254896      13.18041224 
Ag      16.30164135      15.12908073      28.11829240 
Ag      25.13241899      32.77375686      29.58263795 
Au      26.48426237      14.47689897      31.05830291 
Au      28.49413511      13.34637449      24.02697020 
Ag      16.26272909      17.25313147      19.51856687 
Ag      16.12857977      17.22071498      23.31442647 
Ag      20.58171271      15.12211880      17.95733406 
Ag      11.96155196      24.53116187      23.07378555 
Au      14.46748453      30.17170172      26.83635133 
Ag      24.34869931      21.35882439      26.17211370 
Ag      14.91831863      19.99377180      20.24544010 
Au      25.32993495      31.32849503      18.21107536 
Au      28.36700072      20.40239667      14.45430813 
Ag      30.07875252      26.92547089      22.48488204 
Ag      30.99877351      24.82506250      24.22413671 
Ag      31.71427736      24.70704315      21.45598485 
Au      20.52860583      23.78695157      23.82122974 
Ag      25.08232719      14.89319441      16.20401581 
Ag      30.68726809      29.86026094      25.24171530 
Ag      25.75846046      23.40349214      27.84784848 
Ag      27.03580632      27.60174119      16.34446477 
Au      21.02105560      31.51153651      33.13706563 
Au      17.71695801      24.00823938      23.33224119 
Au      22.95514954      19.31444558      24.54067798 
Ag      27.77637722      20.94146863      23.86051859 
Au      19.60210996      25.87968755      21.96474011 
Au      25.01018976      30.96162309      14.96413776 
Ag      25.21887440      19.21805213      27.98419363 
Ag      19.04400777      26.11090369      24.87214805 
Ag      20.48343205      28.13035909      26.44516965 
Au      21.36514826      25.99404603      28.27849370 
Ag      29.08195427      22.99245895      25.52608672 
Ag      19.17438026      21.73411967      22.18835992 
Ag      24.47758311      17.03045308      23.47163950 
Ag      22.77364530      28.11696524      29.94410439 
Ag      20.63440600      19.48955921      21.09644724 
Ag      20.32316352      22.07769006      31.30487187 
Au      24.73809442      29.93309421      28.72572343 
Ag      18.05214689      28.24067762      23.02139165 
Ag      28.09948615      18.95348716      28.57130385 
Ag      18.98471315      20.04114371      29.74734385 
Ag      29.74580800      22.74199417      22.61133211 
Ag      19.63488997      21.57402710      19.24400768 
Ag      18.19604181      17.79333892      25.22106773 
Ag      15.76973269      22.16001127      24.55424718 
Ag      16.69814673      26.17081911      21.47614916 
Ag      26.48425007      24.91206133      17.32105586 
Ag      28.05419626      29.37249596      26.30386576 
Ag      17.22031092      19.86766408      23.47829199 
Ag      18.76514804      17.66414466      22.34142312 
Ag      30.61721345      20.69668892      24.43252781 
Ag      22.09245103      27.49776342      17.80054391 
Ag      21.17218216      19.35659573      18.21083066 
Ag      22.14655968      17.20042242      19.96893510 
Ag      21.89510781      15.44390650      27.55492345 
Ag      19.00002708      24.40528268      32.40367623 
Au      26.47823814      25.53063286      32.43085584 
Au      14.86337155      24.27479978      22.88385022 
Au      29.49503406      20.84698742      30.18380922 
Ag      23.76509370      31.95979123      26.83798773 
Ag      22.45664934      15.14206531      24.72194842 
Ag      24.94019861      16.96859744      20.57269723 
Au      28.40104259      27.79320111      31.09543260 
Ag      19.28763415      17.51446240      19.47909387 
Ag      27.70980265      31.25993078      21.59864468 
Au      15.30852035      24.11304861      20.01507252 
Au      21.16617190      17.27938529      31.43254281 
Ag      21.27015028      32.09848142      23.24644149 
Ag      14.08453533      24.49219812      25.60115479 
Au      22.38427437      23.19515542      15.04971578 
Ag      30.63505729      26.75093088      19.61491434 
Ag      18.31736385      19.53058719      17.71254161 
Au      22.76869547      17.23223923      17.14944465 
Ag      15.46640482      17.49619819      26.14298241 
Ag      30.24605470      29.92643934      28.07792119 
Au      29.76453349      18.22403427      19.98048720 
Ag      13.64556932      21.68573835      22.56592618 
Au      30.44916286      17.39878857      30.94003432 
Ag      26.68178777      15.91420260      18.58813231 
Au      20.79609231      32.19804247      26.34222000 
Au      19.17997557      27.90233612      17.34872132 
Au      25.65661868      17.93283994      16.75482013 
Ag      14.50026432      19.53569780      24.35618595 
Ag      19.08775730      33.27061727      21.02488223 
Ag      24.12417513      22.15801319      12.81616516 
Au      34.56310722      22.49251791      27.52385837 
Ag      29.01707618      32.50134766      29.03897766 
Ag      19.25758722      31.01155694      16.71752646 
Ag      23.70095034      15.04211842      18.90408365 
Au      13.78602485      27.10625898      19.43445784 
Ag      21.15402507      26.69568807      34.18002158 
Ag      20.81423557      28.83048722      32.04001221 
S      20.39925687      16.08703891      33.47467994 
S      28.47422318      32.82763964      19.81731117 
S      24.36867314      22.90451232      35.83906277 
S      24.25664596      18.09472325      35.56158422 
S      12.48918019      18.04607889      24.16263608 
S      32.26537056      17.25868964      29.44819122 
S      31.40657949      14.80973320      21.45976113 
S      29.53127220      19.22791708      16.13668523 
S      28.40955216      21.95297068      33.38828408 
S      23.25265606      27.79919632      34.84857772 
S      13.37592590      30.23088955      24.74232624 
S      16.32807445      18.11393158      17.24864125 
S      32.78362614      23.11819781      19.86602768 
S      26.97484270      30.83680742      33.49242780 
S      23.01190815      32.67648581      32.68093795 
S      17.10584894      31.59920428      17.68359501 
S      11.25993107      22.21747942      22.87593485 
S      25.05739812      13.05825293      26.82503306 
S      33.84845159      29.07794592      27.37415910 
S      28.54584146      26.56403228      33.23278542 
S      24.43254209      24.42046314      11.93921080 
S      27.66302874      26.16136256      13.76789425 
S      19.16694972      33.33100569      30.30069721 
S      28.78710014      17.43474573      32.61536103 
S      21.22224836      34.06141199      24.79848050 
S      30.81147299      32.24631262      27.37909757 
S      28.88176357      29.25349760      16.61536148 
S      33.44847809      17.28905921      23.89948800 
S      34.90103731      21.84655438      23.53986759 
S      19.24745384      13.59602179      25.63488754 
S      20.80644004      33.78783021      19.41608492 
S      12.61349855      19.46331748      19.58045935 
S      19.10911940      30.16253429      33.45172600 
S      31.71781769      30.82990578      23.19325833 
S      35.26061374      27.09138077      23.34468525 
S      31.09123676      30.61321711      31.01311011 
S      23.06467983      13.12710078      23.39504200 
S      32.04220440      19.04598177      19.65569906 
S      28.53892399      14.54668982      17.70634971 
S      15.27407379      30.22466005      29.05583581 
S      31.56694961      21.92788053      31.02586085 
S      20.84972107      26.67671840      14.01469846 
S      17.18835772      26.97520562      16.29242783 
S      27.34232632      12.87167787      22.02659629 
S      16.76935306      33.55617138      26.23665558 
S      15.16473480      21.62859218      31.03654072 
S      20.96377500      16.27241272      15.84154416 
S      24.72430775      29.08417367      13.58235989 
S      20.12956233      22.41378634      14.24727026 
S      21.15247085      31.35214646      15.22899651 
S      23.18571239      33.78900723      28.41617235 
S      13.27891036      17.82101999      28.68520531 
S      24.20105974      33.57893886      22.21354071 
S      27.44119101      21.50464011      12.58313672 
S      16.35422862      23.00240807      16.74827582 
S      25.86203982      16.62321521      14.69576181 
S      17.65977329      14.16769990      29.89259021 
S      28.41682499      13.88887826      29.84205600 
S      27.33616695      33.52502327      30.45688556 
S      32.81865664      27.92224920      19.54607119 
S      24.74021756      14.72883808      32.62642781 
S      14.25622658      29.40772809      19.42583336 
S      13.23493887      26.01030702      27.43093257 
S      34.60170263      20.14236724      27.80581696 
S      30.41292501      23.44543665      16.15399989 
S      18.84038534      25.89846191      34.38640646 
S      35.12760573      24.77290784      27.33168237 
S      20.11959692      20.81867752      34.91913621 
S      32.23759793      26.03431706      30.62972384 
S      23.73878598      19.76582288      12.93723823 
S      17.02106382      33.36841557      22.29778916 
S      15.62177847      26.11078974      30.80801675 
S      11.73132358      26.93886452      23.04511117 
S      24.39869548      13.04517112      17.60655604 
S      13.07620483      24.85793036      19.28196681 
S      22.28291019      13.99715798      29.54194345 
S      16.42584723      17.40341166      32.21041245 
S      15.78103986      15.74658653      21.36027915 
S      14.94344269      15.09629155      26.10196437 
S      25.30995088      32.85708352      16.32792452 
S      29.74326641      13.61311496      26.00907386 
S      19.93683884      13.54583461      19.68396477 
S      26.81357421      33.58621998      25.69990400 
S      12.88929810      22.05963586      26.74238396 
C      20.93003064      14.33214779      33.37957684 
C      30.25632143      33.16610697      20.12522761 
C      23.85551908      24.36170656      36.83362389 
C      23.71793178      19.02830322      37.04921749 
C      11.05251699      18.92208571      24.90149106 
C      32.54630170      15.46102472      29.19233526 
C      31.43346131      12.97785553      21.61676156 
C      31.27526249      19.71392877      15.84864163 
C      28.24062032      22.99138185      34.89194079 
C      22.87515688      29.29768992      35.83785807 
C      13.42776477      31.99054581      24.21935204 
C      16.83424216      16.70269079      16.18181081 
C      33.39453926      24.07962645      18.42452613 
C      26.76842296      32.60623203      33.93120825 
C      22.47395718      34.32184148      32.07367754 
C      17.17135663      33.43713022      17.59912476 
C      10.51376882      22.20035202      21.19274885 
C      26.56145276      12.09956082      27.24306386 
C      34.89108582      28.35338016      28.69988525 
C      28.08371996      27.65490571      34.63020225 
C      23.79098942      24.44072194      10.21153401 
C      27.37684644      26.88355129      12.10254154 
C      17.65044299      33.12397529      31.32341844 
C      29.53758833      18.34791459      34.01962773 
C      19.66839992      35.00002063      24.55421156 
C      32.40077697      32.63871076      28.21007991 
C      28.87830932      30.19308698      15.03600244 
C      34.42383289      16.70196112      25.34046200 
C      35.70413913      21.91032967      21.89014994 
C      17.69751845      12.71696716      25.18377994 
C      21.63601968      35.31302304      20.01727453 
C      12.61689228      17.89433993      18.62235584 
C      19.05529410      29.67496511      35.22053473 
C      33.39844778      31.41297183      23.65373984 
C      35.72391865      28.49331568      22.25205147 
C      32.28786851      30.71685083      32.41317903 
C      21.57278170      12.10076719      23.09432596 
C      33.23089137      17.72187373      20.09127277 
C      28.14245174      12.77937170      18.02879740 
C      13.98609663      29.35793237      30.03317433 
C      32.90234120      20.67724831      31.08751658 
C      19.41755950      26.00774319      13.08353526 
C      15.99213139      28.34809008      16.06944870 
C      26.27588071      11.42478893      22.39340446 
C      15.18944104      33.82852163      27.13498130 
C      14.94220727      20.72850087      32.62292380 
C      21.63398517      15.07915305      14.61732989 
C      23.19215113      29.42897009      12.63499707 
C      20.29713804      21.13264303      12.94815369 
C      21.50468823      33.14843647      15.39248236 
C      23.77661742      35.31871508      27.59013571 
C      11.98763162      18.47975126      29.82281675 
C      25.68875213      34.65584148      22.23580321 
C      28.86470391      21.62305898      11.42046603 
C      16.40574747      21.78497585      15.38098843 
C      27.63536582      16.25518836      14.40712375 
C      17.87998802      12.43370308      29.31665658 
C      29.64618502      13.61959282      31.18041101 
C      27.37937979      35.30777907      29.99933008 
C      32.70709774      29.12069315      18.15341495 
C      25.70329292      14.94794573      34.17789769 
C      12.86196349      30.18585539      20.33504442 
C      12.09454725      27.24243744      26.69375770 
C      36.11957207      19.69090165      26.87237091 
C      30.88991796      24.52404966      14.74645718 
C      18.86047663      24.76357448      35.83430172 
C      36.52177952      24.71027579      26.13541463 
C      20.01398057      19.55991987      36.25206224 
C      32.36040830      25.75883099      32.44212346 
C      24.83787647      18.95963959      11.70832489 
C      15.68571727      33.48563303      21.04256962 
C      15.27587381      25.25192040      32.39176891 
C      10.64340782      27.23535261      21.59367566 
C      22.89012533      12.26783882      16.90145074 
C      12.92318684      24.51280853      17.48628058 
C      22.08808457      12.27167560      28.93870425 
C      16.26131654      15.72378453      32.93426700 
C      13.99761496      15.31508826      21.27661149 
C      13.17177134      14.86110816      26.51903201 
C      27.02091887      33.46753778      16.07642604 
C      31.49821606      13.42246987      25.50187352 
C      18.13697774      13.24640399      19.47117717 
C      28.34541268      34.60409165      25.74181169 
C      11.87493992      22.59500349      28.17976204 
H      21.94107080      14.23451429      32.96948090 
H      20.89432473      13.91253394      34.39169633 
H      20.21986073      13.80008101      32.73428702 
H      30.74929653      33.39213005      19.17344039 
H      30.32214559      34.04009959      20.78426585 
H      30.74981968      32.31741699      20.61177578 
H      24.73904843      24.98615042      37.00851953 
H      23.09549563      24.95645109      36.31604186 
H      23.46199210      24.00058212      37.79084928 
H      23.28438159      18.33208329      37.77548376 
H      24.60894173      19.50133457      37.47823103 
H      22.99374442      19.81411083      36.80252502 
H      11.12846342      18.82995338      25.99201832 
H      11.03778249      19.98087786      24.61989402 
H      10.13654038      18.43180644      24.55285253 
H      33.34103411      15.36308041      28.44274500 
H      32.87782425      15.01066394      30.13442648 
H      31.64033311      14.95972906      28.83412218 
H      30.43094065      12.57112445      21.78805377 
H      31.85381643      12.55576110      20.69692605 
H      32.08109449      12.71458842      22.46153148 
H      31.36714148      20.80427759      15.77461817 
H      31.85200767      19.35079532      16.70927470 
H      31.62254329      19.23230525      14.92778580 
H      27.99261972      22.34388552      35.74064165 
H      29.20010327      23.49003683      35.07159793 
H      27.45295586      23.74343640      34.76672358 
H      22.22380495      29.98982759      35.28820837 
H      22.39766273      28.99204545      36.77600012 
H      23.82585312      29.79904697      36.05612331 
H      12.78615909      32.58157046      24.88255595 
H      14.44981723      32.38605644      24.22654142 
H      13.02516481      32.03094641      23.19972100 
H      16.90497147      17.07232716      15.15194085 
H      17.80623835      16.29363863      16.47904027 
H      16.06799415      15.92147167      16.23561135 
H      32.56159233      24.34211975      17.76090044 
H      33.89938088      24.98792034      18.77051693 
H      34.10162657      23.44100360      17.88142476 
H      27.02968343      33.25492641      33.08805155 
H      25.72026278      32.76959659      34.20789621 
H      27.41951672      32.82023157      34.78665554 
H      21.62663380      34.23739431      31.38451544 
H      22.19620483      34.93275526      32.93998859 
H      23.32479485      34.77500651      31.55102468 
H      16.29737934      33.83899256      18.12477232 
H      18.08650616      33.83414623      18.05240740 
H      17.12318959      33.73392973      16.54529459 
H      11.11469272      22.77878984      20.48305655 
H      10.44572621      21.16228690      20.84579248 
H       9.51002848      22.63499798      21.26232728 
H      27.41500815      12.74286455      27.47204001 
H      26.34086762      11.48183180      28.12149759 
H      26.81019751      11.45560332      26.39111835 
H      35.89241127      28.79286635      28.63320655 
H      34.42755170      28.61781158      29.65830368 
H      34.94917226      27.26274489      28.61437074 
H      28.04932771      27.03167349      35.53199478 
H      28.84934957      28.43165328      34.74084583 
H      27.11061838      28.12762488      34.46636175 
H      23.75192672      25.47793443       9.86038151 
H      24.49277450      23.86745594       9.59423565 
H      22.79623428      23.98972073      10.15333171 
H      26.60657929      26.31402565      11.57062000 
H      27.04250366      27.92032050      12.22003097 
H      28.32160031      26.84870047      11.54788230 
H      17.95668961      32.84683542      32.33937857 
H      17.11603175      34.08055765      31.34214447 
H      16.99562534      32.34451115      30.92002485 
H      30.41405508      17.79503159      34.37460611 
H      29.81012218      19.36905092      33.73134855 
H      28.77833821      18.39034304      34.81026217 
H      18.80984570      34.34448326      24.38418169 
H      19.48317895      35.61273083      25.44409291 
H      19.80717342      35.64924944      23.68049093 
H      32.36767661      32.32398299      29.25945045 
H      33.20543027      32.10166700      27.69485461 
H      32.56612265      33.72021542      28.14440170 
H      29.62645256      30.99225990      15.08859676 
H      29.14792810      29.49706607      14.23231411 
H      27.88738343      30.61810192      14.82431229 
H      34.14797019      15.65736434      25.52747243 
H      35.48847285      16.75753903      25.08561561 
H      34.22094583      17.30174879      26.23459765 
H      34.97192470      21.76788911      21.08724699 
H      36.15662583      22.90397157      21.78568434 
H      36.48409831      21.14264578      21.84193375 
H      17.42264528      12.04248818      26.00360521 
H      16.87249084      13.41295511      25.00260000 
H      17.89147207      12.12718752      24.28033436 
H      22.42653683      35.56111116      19.29885286 
H      20.90829237      36.13049114      20.05834656 
H      22.08840641      35.15419912      21.00215029 
H      12.99595291      18.11411760      17.61793988 
H      13.25747644      17.13414089      19.08072159 
H      11.58722777      17.52402958      18.56248248 
H      18.78310014      30.54696943      35.82525068 
H      18.28736711      28.89726601      35.31026009 
H      20.01199970      29.26615874      35.55996135 
H      33.99380270      30.60575847      24.10062408 
H      33.90341394      31.80375454      22.76320334 
H      33.28115833      32.22042025      24.38669917 
H      35.81192537      28.09155782      21.23576707 
H      34.96213566      29.27931743      22.25523660 
H      36.68670251      28.89883485      22.58178560 
H      32.10165563      29.93245235      33.15297113 
H      33.30300757      30.61129865      32.01321528 
H      32.18232928      31.70060737      32.88510396 
H      21.22562943      11.70541950      24.05558836 
H      20.77145201      12.68573655      22.62973733 
H      21.85793403      11.27818556      22.42811722 
H      33.24146033      16.97933598      19.28502577 
H      34.22115347      18.18629073      20.17850118 
H      32.97570530      17.22605033      21.03225781 
H      27.31683856      12.47863221      17.37317789 
H      29.03472267      12.18509401      17.80085205 
H      27.85169089      12.62052893      19.07272710 
H      13.08105546      29.97558143      30.03177572 
H      13.77699373      28.36400119      29.62155093 
H      14.36801227      29.24945118      31.05498700 
H      32.75584444      20.07876157      31.99503311 
H      32.89119104      20.02119266      30.21232147 
H      33.86380402      21.20211170      31.13439437 
H      19.41147426      24.91140581      13.10341971 
H      18.51415281      26.38623446      13.57969432 
H      19.45996668      26.37186177      12.05125860 
H      15.90155677      28.96808993      16.96638130 
H      16.32222664      28.97110412      15.23037771 
H      15.01759848      27.90077332      15.83840337 
H      26.91578973      10.56494440      22.61969726 
H      25.59384374      11.63408358      23.22486055 
H      25.68981763      11.22698849      21.48745305 
H      14.37384078      33.84497095      26.40278332 
H      15.00075383      33.04167554      27.87217308 
H      15.25032326      34.80253251      27.63453486 
H      14.75645969      21.47179175      33.40713270 
H      14.07453219      20.06391784      32.53670011 
H      15.82113124      20.12973509      32.87934524 
H      21.96963291      15.65359316      13.74589663 
H      22.48220759      14.51424418      15.02156664 
H      20.83371373      14.39094662      14.32156912 
H      22.42473138      29.88655858      13.26965486 
H      23.44530271      30.10136774      11.80769740 
H      22.82596268      28.47037415      12.24695311 
H      19.31239583      20.67271793      12.80207351 
H      20.61584347      21.62336701      12.02061559 
H      21.03130478      20.36844651      13.22136524 
H      22.51742769      33.34057057      15.01877835 
H      20.77354172      33.68836976      14.77911661 
H      21.42682102      33.47617042      16.43502814 
H      23.81725331      36.12683054      28.32946029 
H      24.76430329      35.16768384      27.13870535 
H      23.05592705      35.57175946      26.80198604 
H      11.74146568      17.70765562      30.56067304 
H      12.33384262      19.38377342      30.33460879 
H      11.09484439      18.71426375      29.23125183 
H      26.30019795      34.48310432      21.34292697 
H      25.32845944      35.69191189      22.24838692 
H      26.27293027      34.45571927      23.14252350 
H      29.73613100      22.07693489      11.90137738 
H      29.11711739      20.61722329      11.06632847 
H      28.54729202      22.24229417      10.57321618 
H      15.58425436      21.06996549      15.50026342 
H      16.28742605      22.34248429      14.44358984 
H      17.36524916      21.25215848      15.36789445 
H      28.10681278      15.81621730      15.29377746 
H      27.68985117      15.54798424      13.57080635 
H      28.14168951      17.19076375      14.13996156 
H      16.89650574      11.95459708      29.25190530 
H      18.37218420      12.41046982      28.33720815 
H      18.49586785      11.90054453      30.05029790 
H      30.60341685      13.38475742      30.69962377 
H      29.76000669      14.51134816      31.80627822 
H      29.32805196      12.76633941      31.78959750 
H      27.17488059      35.44682127      28.93279412 
H      26.61756503      35.83348522      30.58708557 
H      28.36785089      35.71407455      30.24205089 
H      33.04440807      28.60584222      17.24597479 
H      31.67960820      29.47036122      18.00299366 
H      33.36859432      29.96971683      18.35718777 
H      26.48417596      15.70598119      34.05696201 
H      25.00831809      15.26552656      34.96483350 
H      26.15505588      13.98594065      34.44395320 
H      12.74825558      29.76154420      21.33911720 
H      13.09024265      31.25603327      20.41027969 
H      11.93853603      30.05062534      19.76144192 
H      12.44084589      27.59523053      25.71835330 
H      11.11274991      26.77097022      26.56842689 
H      12.00971611      28.09742535      27.37541039 
H      36.08305563      20.05813229      25.84050136 
H      36.98511102      20.11995224      27.38921063 
H      36.20110279      18.59781886      26.87598535 
H      30.11148344      25.25819555      14.51402317 
H      31.82103198      25.04062459      15.00728730 
H      31.06342947      23.88956047      13.86888470 
H      19.59576977      23.96079263      35.71042500 
H      19.09105096      25.34424975      36.73446793 
H      17.86175934      24.32228595      35.93258989 
H      36.73605628      25.73955656      25.82178808 
H      37.39547853      24.28266546      26.63956832 
H      36.26458339      24.10753540      25.25790151 
H      19.87650692      20.07632988      37.20931987 
H      19.14379278      18.92589474      36.04567061 
H      20.91199501      18.93320199      36.29447394 
H      32.50128517      24.68355956      32.60742480 
H      33.22956032      26.30800643      32.82219685 
H      31.45305885      26.08873182      32.96081169 
H      25.77291522      19.51700980      11.58855504 
H      25.05707984      17.94584543      12.06437398 
H      24.30600296      18.91330539      10.75093632 
H      14.72771566      33.36180821      21.56134204 
H      15.72616937      34.48173897      20.58683216 
H      15.78823433      32.71651579      20.26834430 
H      15.44131413      25.94990318      33.21984122 
H      14.22782533      24.92974222      32.37500037 
H      15.91827164      24.37178236      32.51797649 
H      11.04800417      26.77885427      20.68375903 
H       9.65207538      26.82104529      21.80904235 
H      10.55720204      28.31883923      21.44932050 
H      22.53267080      11.52771145      17.62692067 
H      22.09095805      12.99816772      16.72768212 
H      23.14768914      11.76711889      15.96164126 
H      12.66376042      23.45180316      17.38590039 
H      12.12046095      25.13483405      17.07538752 
H      13.86665388      24.70193906      16.96399437 
H      22.97714151      12.01299134      28.34866886 
H      22.00943766      11.61221237      29.81064337 
H      21.19551093      12.17594806      28.31206046 
H      16.37638168      14.94276611      32.17531753 
H      17.04693590      15.61276587      33.69130774 
H      15.27579793      15.64789237      33.40720411 
H      13.35855819      16.20566364      21.34405955 
H      13.79848705      14.78353063      20.33929087 
H      13.77506359      14.65547925      22.12378783 
H      13.00121626      13.79325505      26.69601285 
H      12.89071350      15.44355335      27.40260300 
H      12.57973724      15.19977796      25.66037226 
H      27.74819926      32.64985518      16.09578811 
H      27.06011079      33.98661624      15.11185077 
H      27.24352993      34.16464397      16.89261648 
H      31.75275464      14.09012562      24.67067390 
H      32.11639479      13.66375192      26.37493505 
H      31.66287452      12.37824536      25.21283342 
H      17.99430568      12.64647041      18.56523024 
H      17.78194254      12.68777563      20.34497807 
H      17.57441224      14.18286205      19.39851644 
H      28.48884866      35.05260812      24.75187246 
H      28.21274209      35.40114159      26.48306324 
H      29.22144353      34.00313330      26.00691303 
H      11.83148184      23.69189518      28.17491801 
H      10.86886661      22.17616533      28.06381090 
H      12.32027049      22.25288832      29.11990119 
