699
Properties=species:S:1:pos:R:3 i=78 optimized=T E=-11290.3504049308 pbc="F F F" jobid=279_84-Ag-50_2-000002-PBE
Ag      33.17136650      25.51487920      25.94133360 
Au      32.12551872      29.29341008      21.49387231 
Ag      34.55404145      28.10206430      25.40684037 
Ag      29.92330331      15.17822447      19.76192236 
Ag      33.86219282      19.64471096      23.67792362 
Ag      27.12391369      23.49335528      13.28024543 
Au      18.22184737      33.28055342      28.04504654 
Au      28.55006963      30.76155625      18.14406362 
Au      24.98012409      21.23349202      23.25544517 
Ag      26.34425660      23.26852902      24.93435238 
Au      28.22038485      25.10862380      23.59656524 
Ag      23.78860344      21.63287468      29.02617658 
Au      23.32807567      27.88457453      26.99101334 
Ag      26.92117262      23.07158136      21.99383643 
Ag      22.39527970      19.57784768      27.35941179 
Au      27.27293338      21.16219110      26.76538425 
Au      22.08204334      21.50047440      22.70503242 
Ag      21.06028229      23.55758798      20.84829698 
Au      27.69348510      25.31510720      26.58642324 
Au      19.98565281      24.05083203      26.66895261 
Ag      25.52886781      21.08994396      20.34487665 
Au      24.26823274      25.74874074      28.79118073 
Au      23.88835661      27.68039558      24.04397168 
Au      26.19332328      27.60799032      27.57420686 
Ag      20.90705788      21.90651158      28.40656407 
Ag      22.87854656      23.71245324      27.18149955 
Ag      21.50632769      21.71252341      25.60869046 
Ag      19.53294270      19.86565702      26.87110725 
Au      25.86169885      19.11020083      25.09017671 
Au      25.23207389      23.62384286      30.71445003 
Ag      22.98976595      25.34880198      19.56615437 
Au      21.00547539      27.92060978      23.52164680 
Ag      26.71543455      27.37043809      24.68309111 
Au      22.60283073      21.35499819      19.79077621 
Ag      21.94938623      25.85917449      25.35860519 
Ag      27.18132251      25.51134094      29.46459715 
Au      20.21926727      19.69977482      24.02717509 
Ag      25.91149843      25.08381236      20.18107112 
Ag      23.55630665      19.22046111      21.61441910 
Au      22.31679879      23.90289447      30.00992496 
Ag      21.09921570      17.50001772      25.78274415 
Ag      21.55243155      27.65451519      20.60766365 
Ag      24.40537485      27.41065884      21.20876046 
Ag      24.53160282      23.10585846      18.47329317 
Ag      28.66554566      23.22134390      28.47859538 
Au      18.63432993      21.98290234      25.12457240 
Ag      26.72242189      21.30165559      29.64000455 
Au      22.34699916      30.01870057      25.11729696 
Ag      27.26433090      27.13659908      21.80378131 
Ag      21.77601733      19.76211658      30.23286485 
Au      18.45416088      26.37881692      27.66552200 
Ag      23.11628198      21.73601848      31.92643626 
Au      21.57620959      23.38937924      17.90744852 
Au      17.02767877      24.27269189      26.16629887 
Ag      27.49461820      22.82718325      19.08415828 
Ag      23.90775101      17.19179019      26.31019155 
Au      23.27755231      17.49893864      29.19449245 
Ag      25.21453637      29.76361329      25.73592915 
Ag      21.69752858      17.29004807      22.88363992 
Au      28.82548182      18.82771252      25.70772883 
Ag      22.85200728      29.79079714      22.21819932 
Ag      25.36141239      25.33987986      23.04269968 
Ag      20.09125611      25.62420903      18.97607741 
Au      29.61729234      27.13623218      25.32641707 
Au      19.30195637      24.26264761      29.54307723 
Ag      17.95318330      22.17067695      27.93863353 
Ag      19.96230488      28.35750361      29.33614727 
Au      23.67330613      25.86358323      31.68760019 
Au      20.88228616      26.33913657      31.18074320 
Ag      26.41493025      18.97862660      22.19497730 
Au      24.60578397      19.51305546      30.85018978 
Ag      20.40945252      17.68127787      28.66720262 
Ag      28.90291667      24.83414474      20.73748357 
Ag      19.54647475      30.19188100      24.58512912 
Au      25.76787206      29.51651713      22.84043051 
Au      24.90314895      27.11288374      18.29890071 
Ag      28.44764219      20.81225833      20.90484556 
Ag      29.10032691      27.42732606      28.22015947 
Ag      30.12536159      20.94281510      27.38541236 
Au      18.16092886      23.88731748      20.33584792 
Au      17.69961338      19.61132177      20.68442429 
Au      25.58900307      27.75416681      30.48243620 
Au      28.12275016      23.47187344      31.27404003 
Ag      21.90906021      30.18947806      28.09185242 
Au      21.74609723      24.08122842      32.88730244 
Au      18.64249303      27.93573780      20.09055717 
Au      16.29006783      21.96045137      21.66965355 
Ag      30.57958315      25.10204010      27.14990487 
Au      23.44021943      23.52685587      24.33038068 
Ag      20.04808545      30.00252288      21.63967075 
Ag      16.50717821      20.02223782      26.42651529 
Ag      26.76036205      17.04762442      26.89234388 
Ag      29.97243350      25.30964339      30.05280286 
Au      17.56840181      28.47676313      25.84470225 
Ag      16.17767354      26.35711889      24.25233432 
Ag      28.57152801      29.18515418      23.37757476 
Ag      27.86124616      26.87021433      18.99259666 
Au      24.17796696      19.11549916      18.69538169 
Au      27.35305129      16.76176423      23.98897647 
Au      26.99205887      18.78045146      19.32379633 
Au      25.94498971      21.37070010      32.55836446 
Ag      12.51627130      18.90883157      21.95882383 
Au      23.09519742      21.09100527      16.85022663 
Au      26.29554054      29.14014025      19.80280202 
Ag      19.94915220      19.58191348      32.41235765 
Au      26.16669735      17.17415910      29.73265713 
Ag      29.28300114      18.69139679      22.77318049 
Au      27.60668745      29.67810144      29.22153035 
Au      15.13694592      22.43701668      27.40451555 
Au      26.12467029      20.83154219      17.32118930 
Ag      24.54303286      23.78333793      33.48079386 
Au      23.55505109      25.12564281      16.51990272 
Ag      17.55748542      17.99468298      28.12057118 
Au      19.10094733      30.45204766      27.51666628 
Ag      23.46213241      29.44953093      19.30303137 
Ag      22.46970245      25.60151611      22.44493477 
Ag      16.07329848      20.22716904      29.33165634 
Au      27.50382346      19.15462246      31.37794339 
Au      29.15931904      28.90692226      20.55179349 
Au      16.39136846      24.48178336      28.97788951 
Ag      32.03766311      22.82336546      26.11724793 
Au      16.63826002      21.61780005      18.81228669 
Au      24.84556048      31.48754007      20.73165631 
Ag      21.95185969      31.72504376      20.26731430 
Ag      20.69267102      25.39079192      16.03948481 
Au      24.17976351      31.86790050      23.93544568 
Au      20.62388290      29.68737861      18.74118706 
Ag      23.13209769      15.04693936      21.63721526 
Ag      30.37207375      22.54959628      19.65127073 
Ag      25.10773138      22.87241064      15.55282608 
Au      18.76703264      23.64429357      17.34332427 
Ag      28.93275272      20.56876244      18.02407458 
Ag      17.52014498      22.44411319      30.86229839 
Au      17.13529291      28.67741289      28.72873724 
Ag      27.86354350      16.72770660      21.13471754 
Au      15.55754061      26.85617977      27.03643636 
Ag      18.95303055      15.68099527      27.05640532 
Au      19.69455399      15.48730481      24.01470008 
Au      18.05488034      26.70136953      30.74722287 
Ag      20.22133700      15.37741580      21.22124995 
Ag      27.15017445      31.56472867      24.31772552 
Ag      24.89047248      15.17980061      28.27162864 
Au      24.01022002      23.33679478      21.39893806 
Ag      20.15167395      21.21415799      16.39505515 
Au      27.92368802      22.74999614      16.11727094 
Ag      31.41036621      20.42171151      21.72024767 
Au      26.80446375      31.70427883      27.41010291 
Ag      25.63860727      14.89551939      25.26141335 
Ag      28.71604942      16.17027511      28.79683894 
Ag      25.99771646      14.83609917      22.26403234 
Ag      32.64099120      22.62245154      23.28932900 
Ag      25.77455563      30.44766604      31.40684211 
Au      22.99858828      30.87828152      30.77563745 
Au      24.27115478      16.93975255      31.90401139 
Au      31.33705514      17.89059778      24.71181507 
Ag      17.13874714      25.95042489      18.54002814 
Au      31.54620077      23.03158342      28.87047564 
Au      29.36822793      16.04564804      25.95219836 
Ag      15.54469346      29.18221541      23.89702570 
Ag      16.06691368      28.95511285      21.02156473 
Ag      17.07392140      31.23084914      25.56369435 
Ag      29.42200479      24.76402279      17.90509355 
Au      30.71802881      18.03548176      27.63312395 
Au      18.65324017      17.53219824      30.85514823 
Ag      23.98751019      19.58848076      33.61873325 
Au      18.08657553      30.72801354      19.74417690 
Ag      17.50788990      30.99899283      22.63138096 
Ag      14.15176013      27.04571276      22.29373561 
Ag      32.63082646      19.94027401      26.37929503 
Au      24.81142922      25.55025957      25.92273734 
Ag      32.99365590      26.67575544      23.10599735 
Ag      24.88841293      19.93171146      14.91656027 
Ag      20.16236041      31.05633826      30.18594576 
Au      31.78488824      27.78373157      27.12523389 
Au      23.87459202      28.52824934      32.61142663 
Au      29.86972854      15.88407371      22.99118941 
Au      22.58250235      17.00128213      34.50082786 
Au      13.33493560      19.54977103      28.61322471 
Au      24.05868655      27.89785696      15.64350852 
Ag      15.75293591      17.45878286      30.51955189 
Au      25.63680403      25.65805386      14.72709277 
Ag      28.74341456      30.60590469      32.11849185 
Ag      22.58769200      30.14337682      16.67689213 
Au      22.10792727      21.76522441      34.89316475 
Ag      31.12830052      28.30651064      30.19659444 
Au      19.18968987      14.15059742      29.50165555 
Au      22.37273930      25.18631657      12.89901696 
Ag      16.03619918      15.41879187      27.90373295 
Ag      25.15928767      32.82098327      29.55665662 
Au      26.76950012      14.53165862      31.07760139 
Ag      28.30440156      13.57974434      24.07408013 
Ag      16.27952265      17.19304040      19.40474770 
Au      16.06911628      17.63421597      22.69550048 
Au      20.79194127      15.39602760      17.71575523 
Ag      11.96171210      24.54897396      22.88004812 
Ag      14.76979728      29.96096357      26.95257618 
Ag      24.37341094      21.39759907      26.15135786 
Au      14.92077013      19.86642371      20.23919402 
Ag      25.47592943      31.08749248      17.97526267 
Ag      28.04640012      20.18753627      14.82581075 
Ag      30.22278021      26.99666484      22.43932887 
Au      31.07359690      24.87376083      24.20679567 
Au      31.79307167      24.72819222      21.40827480 
Ag      20.55917700      23.81301536      23.79004713 
Ag      25.29609630      14.95249635      16.17925259 
Au      30.76699924      29.71647107      25.04747224 
Au      25.77516927      23.41923660      27.83531045 
Ag      26.93531234      27.71873892      16.42143040 
Au      20.55912015      31.38021773      33.13944853 
Au      17.71381997      24.04469422      23.28815585 
Ag      23.03800478      19.35289684      24.48220654 
Au      27.82398364      20.95903252      23.82720375 
Au      19.62594032      25.87589515      21.91823860 
Au      24.89625645      31.07309779      14.94732623 
Au      25.24230654      19.33979001      27.95826596 
Ag      19.04609070      26.11490297      24.80763617 
Ag      20.50129515      28.15095284      26.44169023 
Au      21.37209166      26.03788505      28.25205872 
Au      29.18106561      23.05369101      25.56308299 
Au      19.20579625      21.75622355      22.15149072 
Ag      24.54940933      17.04227174      23.46186936 
Ag      22.79432304      28.13976864      29.91825733 
Ag      20.70814728      19.51270130      21.09664453 
Au      20.33525610      22.14642989      31.21976185 
Au      24.75575539      29.98752031      28.69870638 
Au      18.04425395      28.24856802      22.95204143 
Ag      28.15990028      19.00634835      28.58252391 
Au      18.93725167      20.09888127      29.68294792 
Au      29.80058375      22.72794578      22.58699850 
Au      19.60118167      21.52055379      19.19562760 
Au      18.29840493      17.82624452      25.28366879 
Au      15.66790178      22.17280141      24.55210101 
Ag      16.69498732      26.14125953      21.38609777 
Au      26.52090240      24.91646653      17.34314471 
Au      28.08093629      29.42315246      26.21085304 
Au      17.26307138      19.94171020      23.61970375 
Au      18.90767788      17.63352934      22.40226610 
Au      30.72218574      20.74830734      24.47298584 
Au      22.07454821      27.41539515      17.68011948 
Ag      21.17904462      19.33336301      18.26818200 
Au      22.23307354      17.20857118      19.91932203 
Ag      21.96659138      15.47720487      27.61732206 
Ag      18.96732985      24.44529170      32.41764944 
Ag      26.44197659      25.68559988      32.37715896 
Au      14.87196305      24.28466482      22.71149527 
Au      29.57100399      20.84199468      30.25383368 
Au      23.69704573      32.00832156      26.71257220 
Ag      22.55859294      15.18988993      24.71553214 
Ag      25.01391137      16.98549130      20.54186375 
Au      28.38706839      27.79341422      31.13088251 
Au      19.36346487      17.49473901      19.52927775 
Au      27.65236845      31.16630255      21.52602948 
Ag      15.30313129      24.02473034      19.86930477 
Ag      21.43863734      17.09745109      31.38326898 
Ag      21.14545785      32.13376595      23.15718175 
Ag      14.14616331      24.49868785      25.42524378 
Au      22.30891614      23.04853290      14.91892307 
Ag      30.70019270      26.72682283      19.55636165 
Ag      18.28312491      19.42373701      17.75781465 
Au      22.88830351      18.27396160      16.30381966 
Au      15.62069965      17.32075783      25.77670487 
Au      30.26006137      30.10216843      27.93451232 
Au      29.77135215      18.42880803      19.90170263 
Ag      13.60364692      21.69197466      22.51099913 
Ag      30.24754328      17.81864840      30.81896144 
Au      26.77867030      15.92809218      18.63199175 
Ag      20.71118068      32.35943691      26.25551718 
Au      19.26066743      27.76364348      17.18428792 
Ag      25.90795729      17.93870567      16.72681249 
Au      14.50398255      19.54446549      24.30657845 
Au      18.95749200      33.38660101      20.96401491 
Ag      24.03010674      21.85562329      12.73995803 
Au      34.65550965      22.59260201      27.44185935 
Ag      28.92946339      32.45525024      29.41876844 
Au      19.25179807      31.36692485      16.58153945 
Au      23.70479391      15.10153171      18.84021079 
Au      13.79848655      27.21575951      19.34656706 
Ag      20.91994703      26.70679512      34.18709373 
Ag      19.58919366      28.62133466      32.17146616 
S      20.77211072      15.88800742      33.49073122 
S      28.51310691      32.57495240      19.68792797 
S      24.07068651      22.81880262      35.72503781 
S      24.33947365      18.12655364      35.60273101 
S      12.36424591      18.36444153      24.29848226 
S      32.24492857      17.52051114      29.44422121 
S      31.48623265      14.73914908      21.57048763 
S      29.68424995      19.02364910      16.22446671 
S      28.18005532      22.05261317      33.32700426 
S      22.97241551      27.91802416      34.77795250 
S      13.48776703      30.09393519      24.89525206 
S      16.38989327      17.96816049      17.08668081 
S      32.81506160      23.18636800      19.79259479 
S      26.81794214      30.77804136      33.60756928 
S      22.68529948      32.31808646      32.77053094 
S      17.15771896      31.60818160      17.64775283 
S      11.20458039      22.27498029      22.53275285 
S      24.96924168      13.13422706      26.89880250 
S      33.86943716      29.06074030      27.49831670 
S      28.63609866      26.52372166      33.23583701 
S      24.09696309      24.07582302      11.72285780 
S      27.45477707      25.94408135      13.16934794 
S      19.24884578      33.38535139      30.16105309 
S      28.74718149      17.53508662      32.74220425 
S      21.21361691      34.15644927      24.61095184 
S      30.92861038      32.43715656      27.96063752 
S      28.90280009      29.22893190      16.37035288 
S      33.52343795      17.24100707      23.86131951 
S      34.96190327      21.79127286      23.51803867 
S      19.18363628      13.64075228      25.50654296 
S      20.75495102      33.76539022      19.48155164 
S      12.65398018      19.36278807      19.59272696 
S      18.48359502      30.35800455      33.56472501 
S      31.83653384      30.90424969      23.22630765 
S      35.38851015      27.22238986      23.33758995 
S      31.05428122      30.47445437      31.41305450 
S      23.25563579      13.22752239      23.31959340 
S      32.11564818      19.10821454      19.71109873 
S      28.65118166      14.64238990      17.76706634 
S      15.50706486      30.42556877      29.23504104 
S      31.60304303      21.95406160      31.09804820 
S      20.59344124      26.45082208      13.77749966 
S      17.14865883      27.00899074      16.24919047 
S      27.38974501      12.80356578      21.96451604 
S      16.84363772      33.62436479      26.15452484 
S      15.27588452      21.57818081      31.35926382 
S      21.17089530      16.66073879      15.72721902 
S      24.60814988      29.15798448      13.60850857 
S      20.12571843      22.13357238      14.09532485 
S      21.13395672      31.51338539      15.18568820 
S      23.18302153      33.74332651      28.33015519 
S      13.57906126      17.34687175      29.40401397 
S      24.27523894      33.46936758      22.07961167 
S      27.35353910      21.15333329      12.67803924 
S      16.43784452      22.99786900      16.80402296 
S      26.09128627      16.60892977      14.62492202 
S      16.88336138      14.37990142      29.95268693 
S      28.74493865      13.94549530      29.93337121 
S      27.19902453      33.57599754      30.72286764 
S      32.82074994      28.07364484      19.57609898 
S      24.97169592      14.71181973      32.59440132 
S      14.20461707      29.53304819      19.47292681 
S      13.32992475      25.92547784      27.30480468 
S      34.60551372      20.26877673      27.82830367 
S      30.30684661      23.44739222      15.96158626 
S      18.70398024      25.71112030      34.54250488 
S      35.25840692      24.84122901      27.09546122 
S      19.99816114      20.71675404      34.62055792 
S      32.26466259      26.11760781      30.52594011 
S      23.71424420      19.43457095      12.80484754 
S      17.03638675      33.41525951      22.34682139 
S      15.66761606      26.12561283      30.67927125 
S      11.76727535      26.95465581      22.99477382 
S      24.45085914      13.17240858      17.58522712 
S      13.15048700      24.96850191      19.07188410 
S      21.46243584      13.62207254      29.21218916 
S      17.02170885      17.41708607      32.67422472 
S      15.75980300      15.70537355      21.30228727 
S      14.57337457      15.11811591      25.89573517 
S      25.24206395      32.94314582      16.32943294 
S      29.63492745      13.63555058      26.11584287 
S      20.21490125      13.74777232      19.33240548 
S      27.00185100      33.57134400      25.81027257 
S      12.83100282      21.69193313      27.79097680 
C      21.28586311      14.13680012      33.30213924 
C      30.28242533      32.90015776      20.05230399 
C      23.42644782      24.19714195      36.75647050 
C      23.60139795      18.93145126      37.07796599 
C      11.06171094      19.44678439      25.00103341 
C      32.55872907      15.71540571      29.31544571 
C      31.31904064      12.91822963      21.76474789 
C      31.32266136      19.67071922      15.70577066 
C      27.96014136      23.10433083      34.80684035 
C      22.52805573      29.43115819      35.71052641 
C      13.38948964      31.86987562      24.43371064 
C      17.05539828      16.55071565      16.12388969 
C      33.36056393      24.18577705      18.35604450 
C      26.54386377      32.51505164      34.13011984 
C      22.40216577      34.03560218      32.19741431 
C      16.97655932      33.43425547      17.70488955 
C      10.62939181      22.32701913      20.78565533 
C      26.40842872      12.14540190      27.46653979 
C      34.88827295      28.22733747      28.77553763 
C      28.30848466      27.65071689      34.64695795 
C      23.37609008      23.81357907      10.04895486 
C      26.75493012      26.59293002      11.60608255 
C      17.77460115      33.34396653      31.25941763 
C      29.50100004      18.51169714      34.10307714 
C      19.74987495      35.23669802      24.37708590 
C      32.48060078      32.56946631      28.92404855 
C      28.77086235      30.20841473      14.82253560 
C      34.48155027      16.67364138      25.32224536 
C      35.76502391      21.84455511      21.86470098 
C      17.52539994      13.07899514      24.95367501 
C      21.59308807      35.26044270      20.13999988 
C      12.67804550      17.78774107      18.64986802 
C      18.56108111      29.75749748      35.30013997 
C      33.52681318      31.35071748      23.77805573 
C      35.78917522      28.64242285      22.24250518 
C      31.99668210      30.15288596      32.96069679 
C      21.84183800      12.11422954      22.94204114 
C      33.21698211      17.72145149      20.17851854 
C      28.23344235      12.87313922      18.03801038 
C      14.25001820      29.64647191      30.32390810 
C      32.99366752      20.76623658      31.15920640 
C      19.10098530      25.70330039      13.01513681 
C      16.02487314      28.45420139      16.19879326 
C      26.36126947      11.32445381      22.32018079 
C      15.22030871      33.94334733      26.95683581 
C      15.41296721      20.63776418      32.92891392 
C      21.90108382      15.49805453      14.51354272 
C      23.05745365      29.39002544      12.65896950 
C      20.38997094      20.75942660      12.91358256 
C      21.62325052      33.27081296      15.40605615 
C      23.75103183      35.25964134      27.46685273 
C      12.38449427      17.25696274      30.80181899 
C      25.81608467      34.44788972      22.21941357 
C      28.88027398      21.07335450      11.64824391 
C      16.42527501      21.84182100      15.38321372 
C      27.85631561      16.17258292      14.36078146 
C      16.25622506      12.65066093      29.87191893 
C      29.95633826      13.88658568      31.31539048 
C      27.32923711      35.34276763      30.22007512 
C      32.69665953      29.29634651      18.20958107 
C      25.86467535      14.94217171      34.18224126 
C      12.82833466      30.21904014      20.47851043 
C      12.07757732      27.12693465      26.71714786 
C      36.12189246      19.71900189      26.94490135 
C      30.54955992      24.62524138      14.57631726 
C      18.90876015      24.54697071      35.95107749 
C      36.54384731      24.66127113      25.79338956 
C      19.90718919      19.42117288      35.91697179 
C      32.43698586      25.91593352      32.34323585 
C      24.91340937      18.66823610      11.64829355 
C      15.61172967      33.52596270      21.19342546 
C      15.29578905      25.31265738      32.27595620 
C      10.64174509      27.31665057      21.58588525 
C      22.97183821      12.43516441      16.78606529 
C      13.03307468      24.71227727      17.25715443 
C      21.43847503      12.07708917      28.22111857 
C      17.02454431      15.72288372      33.36805243 
C      13.97046544      15.30842709      21.36525815 
C      12.82087612      15.28934115      26.40295997 
C      26.93321590      33.56367165      15.97078675 
C      31.36623572      13.31750284      25.58974322 
C      18.44759893      13.35743658      19.01370970 
C      28.68345783      34.29742539      25.91476196 
C      12.28777971      22.62920394      29.27096813 
H      22.30908520      14.05610992      32.91952148 
H      21.21028329      13.64263400      34.27727970 
H      20.59285855      13.67053045      32.59074996 
H      30.75384082      33.30962387      19.15166018 
H      30.32055970      33.64053114      20.86030731 
H      30.79953544      31.98894352      20.37225959 
H      24.28958470      24.78496923      37.09108628 
H      22.75216798      24.84562068      36.18607195 
H      22.90582712      23.78088578      37.62576232 
H      23.24871173      18.16239201      37.77335474 
H      24.39698713      19.52212092      37.54772841 
H      22.78143543      19.60308691      36.80101242 
H      11.28170745      19.60454519      26.06363845 
H      11.00869999      20.40804625      24.47848229 
H      10.10698201      18.91799025      24.89261899 
H      33.32863892      15.55913328      28.55067635 
H      32.92832624      15.36002220      30.28437700 
H      31.65071827      15.16842552      29.03831226 
H      30.26884583      12.60702753      21.79689606 
H      31.82091458      12.44616322      20.91189611 
H      31.82242832      12.61961895      22.69136296 
H      31.28718104      20.75240545      15.52845944 
H      32.03373695      19.45917689      16.51458383 
H      31.63536931      19.15071631      14.79313285 
H      27.57933850      22.48312792      35.62544132 
H      28.94187175      23.51877811      35.06621033 
H      27.26097980      23.92725121      34.60953781 
H      21.82693426      30.06305308      35.14771831 
H      22.07816586      29.12998199      36.66411608 
H      23.44818194      29.99603488      35.90108908 
H      12.77086862      32.39545969      25.16973918 
H      14.38092465      32.33355036      24.38199470 
H      12.90806077      31.92877647      23.45007422 
H      17.24652084      16.89447133      15.10057501 
H      17.99061186      16.17355772      16.55364548 
H      16.30516865      15.75227695      16.10622454 
H      32.49967570      24.61533404      17.82904700 
H      34.02623922      24.98453769      18.70052887 
H      33.90086568      23.51277312      17.67894941 
H      26.86050693      33.21816645      33.35275684 
H      25.47322813      32.64437126      34.32924728 
H      27.11557731      32.68593421      35.04976280 
H      21.65040814      34.07634803      31.40171134 
H      22.07630922      34.63172185      33.05745002 
H      23.36111972      34.41339982      31.82171116 
H      16.03693678      33.65858218      18.22255898 
H      17.81476938      33.90382587      18.23164799 
H      16.92269153      33.80378964      16.67458838 
H      11.30921464      22.91367849      20.15831898 
H      10.57286471      21.30122405      20.40346789 
H       9.63315738      22.78357236      20.77192339 
H      27.30144959      12.75913116      27.61638535 
H      26.14448482      11.65919706      28.41258262 
H      26.61839921      11.38383852      26.70591833 
H      35.85100974      28.74967071      28.82296301 
H      34.36489304      28.31120780      29.73533274 
H      35.04731543      27.16925255      28.54191074 
H      28.29889815      27.03891661      35.55734927 
H      29.11209449      28.39363610      34.71237968 
H      27.35088404      28.16935292      34.54108975 
H      23.25352574      24.78673809       9.56005925 
H      24.08001934      23.19887773       9.47591985 
H      22.40878026      23.30607267      10.10742797 
H      25.93875846      25.95393268      11.25157173 
H      26.38407992      27.60925660      11.78531699 
H      27.56700991      26.61320876      10.86907473 
H      18.13243393      33.21518345      32.28856600 
H      17.24074611      34.29582528      31.16482946 
H      17.10829808      32.51434838      30.99929184 
H      30.37560135      17.96842426      34.47877016 
H      29.79340229      19.51056744      33.76337954 
H      28.75448218      18.60979676      34.90027724 
H      18.81844087      34.66855155      24.30262031 
H      19.68577649      35.91676708      25.23440417 
H      19.89270273      35.81546269      23.45679514 
H      32.33882675      32.20127862      29.94591338 
H      33.25473963      31.97783123      28.42091534 
H      32.76462055      33.62888289      28.93710647 
H      29.54983724      30.97886191      14.81293461 
H      28.93202905      29.51194272      13.99048421 
H      27.77917196      30.66800652      14.72102680 
H      34.21857121      15.62520623      25.50679801 
H      35.54991495      16.74671022      25.08823846 
H      34.25203691      17.26951503      26.21240475 
H      35.03082287      21.73087430      21.06024444 
H      36.24825050      22.82426465      21.76810588 
H      36.52160293      21.05476073      21.80536787 
H      17.02060621      12.60280893      25.80267655 
H      16.91463637      13.91338741      24.59476875 
H      17.65785132      12.34851676      24.14706380 
H      22.49072648      35.42021548      19.53041545 
H      20.92162142      36.12011107      20.03991194 
H      21.88847255      35.12407892      21.18574279 
H      13.12604982      17.98718449      17.66978412 
H      13.26317202      17.01345056      19.15564921 
H      11.64047819      17.45419364      18.53093345 
H      18.45513413      30.61182245      35.97744095 
H      17.72344692      29.06335662      35.43582896 
H      19.49549914      29.22551757      35.50512336 
H      34.07537990      30.47405520      24.14790743 
H      34.06478592      31.80498266      22.93818634 
H      33.41970509      32.07962559      24.59021385 
H      36.07077896      28.23132902      21.26605871 
H      34.92716479      29.30527632      22.10517353 
H      36.63194006      29.19715440      22.66879345 
H      31.65824339      29.23346239      33.44889173 
H      33.05818777      30.05689458      32.70259370 
H      31.86508507      31.00107452      33.64223001 
H      21.90404290      11.25818420      23.62445962 
H      20.88900433      12.63384720      23.09694924 
H      21.91749226      11.76973091      21.90506666 
H      33.23982995      17.00213909      19.35155106 
H      34.22164291      18.13225164      20.33835591 
H      32.88528089      17.21577677      21.08962131 
H      27.42559918      12.59499129      17.35077718 
H      29.13144093      12.28483178      17.81472082 
H      27.91683922      12.69249670      19.07162450 
H      13.34089767      30.25798001      30.29235533 
H      14.02838006      28.62139156      30.00999272 
H      14.65143290      29.63035317      31.34405661 
H      32.85434637      20.12092003      32.03520037 
H      33.05439687      20.15071154      30.25717219 
H      33.92129960      21.34145032      31.26548898 
H      19.13076757      24.60959663      13.08580583 
H      18.23525794      26.08933990      13.56854248 
H      19.04473738      26.01432817      11.96616187 
H      15.99709361      28.98429382      17.15494373 
H      16.36009739      29.14061995      15.41309212 
H      15.01989947      28.08179204      15.96434032 
H      26.98958199      10.53923968      22.75385106 
H      25.53815730      11.57521768      22.99891929 
H      25.94487452      10.97785294      21.36662178 
H      14.47884321      34.07092630      26.15967192 
H      14.92282530      33.11609697      27.61062718 
H      15.29244000      34.87072472      27.53566585 
H      15.17744296      21.31944584      33.75482976 
H      14.69184922      19.81202873      32.91987208 
H      16.41752026      20.22833137      33.07325410 
H      22.12799896      16.07630903      13.60957956 
H      22.82662289      15.04555722      14.89333083 
H      21.16362463      14.72012498      14.28472318 
H      22.27395952      29.84680299      13.27298745 
H      23.28557886      30.03370503      11.80142949 
H      22.73334528      28.39955819      12.31554714 
H      19.40368058      20.35134872      12.66056396 
H      20.87008942      21.14767709      12.00758667 
H      21.01567201      19.96909673      13.33851862 
H      22.61302839      33.40102194      14.95278628 
H      20.88867377      33.90050970      14.89220368 
H      21.66639507      33.54075995      16.46636500 
H      23.71222802      36.08758017      28.18503003 
H      24.77238853      35.13697936      27.08798796 
H      23.06675379      35.45274105      26.63075184 
H      12.52161760      16.28737692      31.29447009 
H      12.55299148      18.06237425      31.52273495 
H      11.36721406      17.32493764      30.39994893 
H      25.93797593      35.02087810      21.29277752 
H      25.70928323      35.12295794      23.07654987 
H      26.68428200      33.79309563      22.36824719 
H      29.74257393      21.48834711      12.17931046 
H      29.07671182      20.02438086      11.39729934 
H      28.70851007      21.64184129      10.72686504 
H      15.49443426      21.26440838      15.41588802 
H      16.47094577      22.44256345      14.46716016 
H      17.28571424      21.16265470      15.42018319 
H      28.31873788      15.78335736      15.27465341 
H      27.90096782      15.41500863      13.57004394 
H      28.39041061      17.07658123      14.04395489 
H      15.16488557      12.68938384      29.96832558 
H      16.52393135      12.17404842      28.92431572 
H      16.68021750      12.08218881      30.70744426 
H      30.93997096      13.67510825      30.88019344 
H      29.98950486      14.83458220      31.86404861 
H      29.67846025      13.07196288      31.99313521 
H      27.22633009      35.45643781      29.13598274 
H      26.53565537      35.90886084      30.72205208 
H      28.30550571      35.72633037      30.53842934 
H      32.94661035      28.76850038      17.28125439 
H      31.68388370      29.70639092      18.12679795 
H      33.42029398      30.10109723      18.37892992 
H      26.62704329      15.72362219      34.09437406 
H      25.12633937      15.22705180      34.94195102 
H      26.33196791      13.98685839      34.44687969 
H      12.75624756      29.72804583      21.45579242 
H      13.03906958      31.28630557      20.61806592 
H      11.88903418      30.10312694      19.92687552 
H      12.31056238      27.52350899      25.72481779 
H      11.11645804      26.60006470      26.67277238 
H      12.01374971      27.95001248      27.43888366 
H      36.12022663      20.04722100      25.89939516 
H      36.99635275      20.12687535      27.46383496 
H      36.15124597      18.62416033      26.99168802 
H      29.87675841      25.48488064      14.64934196 
H      31.59030549      24.96964220      14.61785907 
H      30.37222475      24.11041475      13.62453271 
H      19.71006372      23.82351958      35.76393140 
H      19.12830690      25.12297682      36.85695392 
H      17.96433320      24.00605890      36.08383638 
H      36.77648789      25.66171511      25.40886714 
H      37.43597815      24.21868211      26.24993540 
H      36.18876315      24.02532031      24.97476951 
H      19.99241776      19.88797904      36.90456904 
H      18.92532630      18.94161164      35.82045235 
H      20.69139560      18.66392384      35.78284141 
H      32.63329457      24.85713384      32.55267284 
H      33.28494811      26.52145270      32.68423420 
H      31.52328296      26.22284516      32.86670850 
H      25.80790355      19.29239108      11.54527741 
H      25.19470216      17.68688393      12.04801393 
H      24.42001166      18.55365049      10.67616255 
H      14.70103743      33.46845426      21.80201301 
H      15.64193912      34.49066571      20.67484641 
H      15.62123704      32.70551572      20.46776826 
H      15.41609897      26.05053341      33.07705972 
H      14.25814995      24.96025836      32.23350824 
H      15.95903417      24.45771018      32.45386419 
H      11.04022234      26.92922349      20.64148641 
H       9.66372946      26.86657134      21.78980811 
H      10.52899531      28.40488147      21.51435708 
H      22.43341636      11.85338968      17.54288828 
H      22.29932627      13.20306770      16.38925546 
H      23.31396220      11.77762093      15.97848212 
H      12.79057244      23.65433808      17.09964377 
H      12.22880472      25.33946538      16.85780472 
H      13.98167673      24.94052279      16.76073590 
H      22.46288281      11.92092269      27.85836704 
H      21.13620718      11.24735843      28.86945261 
H      20.75421952      12.16460403      27.36986989 
H      16.87799097      14.97748014      32.57915705 
H      17.98502175      15.55538139      33.87037927 
H      16.20455648      15.66737181      34.09451287 
H      13.34850650      16.20654562      21.26157924 
H      13.74079789      14.59966083      20.56071672 
H      13.76638167      14.84556692      22.33857772 
H      12.40515631      14.27582995      26.46247244 
H      12.73280563      15.78594079      27.37491736 
H      12.28847564      15.87149074      25.64158699 
H      27.68655165      32.77701904      16.08709679 
H      26.95975686      33.97315416      14.95537165 
H      27.13787266      34.35845004      16.69816812 
H      31.65243454      13.95765427      24.74816355 
H      32.02223928      13.51889853      26.44491723 
H      31.45091450      12.26197778      25.30582388 
H      18.35793340      12.88974940      18.02718737 
H      18.12544177      12.64957529      19.78681835 
H      17.82075695      14.25451484      19.06450322 
H      28.76073288      35.04936906      25.11976016 
H      28.81698019      34.77953704      26.89015887 
H      29.46237989      33.54095680      25.78162675 
H      12.28014655      23.69099943      28.99385665 
H      11.27521214      22.29861864      29.52915861 
H      12.96958631      22.46281846      30.11309943 
