699
Properties=species:S:1:pos:R:3 i=87 optimized=T E=-10866.8818862312 pbc="F F F" jobid=279_84-Ag-10_0-000002-PBE
Au      33.22332059      25.38593056      25.97496602 
Au      32.09652043      29.45757438      21.57404775 
Ag      34.49554291      28.08792662      25.47201157 
Au      29.93146825      14.96354605      19.73616120 
Au      34.12896803      19.54743748      23.72038806 
Au      27.53845030      23.53358686      12.80667409 
Au      18.11194029      33.27598685      28.14702707 
Au      28.51781248      30.73926701      18.03139644 
Au      24.91344605      21.23358499      23.26019087 
Au      26.30384524      23.22282259      24.95310718 
Au      28.23240779      25.11119791      23.64567674 
Au      23.78756293      21.60968428      29.05400847 
Au      23.37554661      27.88177821      26.98823848 
Au      26.93568956      23.05905612      21.98440455 
Au      22.33405947      19.54937652      27.38013160 
Au      27.25659872      21.12901575      26.74934798 
Au      22.00624056      21.48902720      22.71630110 
Au      20.98655484      23.56293786      20.82089288 
Au      27.65386292      25.23699261      26.60363243 
Au      19.91420880      24.02922405      26.72671180 
Au      25.48719283      21.10032775      20.31399484 
Au      24.33886066      25.71927846      28.82362194 
Au      23.85826385      27.71531211      24.06904510 
Au      26.24145721      27.64516259      27.65437870 
Au      20.85847910      21.88721462      28.42677489 
Au      22.86655132      23.71001822      27.22192261 
Au      21.43142715      21.68783538      25.59667943 
Au      19.45400063      19.83351819      26.89154788 
Au      25.79476517      19.11865592      25.09072982 
Ag      25.23687596      23.54932140      30.77688640 
Au      23.01727109      25.39068728      19.52552142 
Au      20.96427373      27.92407370      23.55781224 
Au      26.65691809      27.39131175      24.75470068 
Au      22.55564094      21.36547293      19.77956489 
Au      21.92640714      25.84904957      25.37414828 
Au      27.21306482      25.46485338      29.48745047 
Au      20.10301399      19.63133087      24.00868735 
Au      25.89773876      25.06952878      20.16248239 
Au      23.46147915      19.20699444      21.62399536 
Au      22.33562438      23.91141903      30.06291456 
Au      20.99217014      17.45073982      25.80395782 
Au      21.56381893      27.65621790      20.56924169 
Au      24.41389678      27.44191101      21.20296356 
Au      24.51928445      23.12846094      18.45564741 
Ag      28.62039038      23.14260497      28.49227283 
Ag      18.53492446      21.93709632      25.11017004 
Au      26.66570800      21.23362212      29.63107696 
Au      22.39586512      30.07565805      25.14887845 
Au      27.23638148      27.15336275      21.82729442 
Au      21.70594886      19.70327528      30.25920974 
Au      18.46029818      26.38912473      27.72275805 
Au      23.10321369      21.70146101      31.99414192 
Au      21.59049613      23.45241003      17.85863259 
Au      17.00879968      24.27647416      26.17938336 
Ag      27.47797458      22.81544882      19.01335603 
Au      23.84256909      17.21327182      26.28722088 
Au      23.20194412      17.42714733      29.27469478 
Au      25.22439690      29.80069922      25.78628007 
Ag      21.57494163      17.21726432      22.84950379 
Au      28.81353509      18.76838421      25.68621797 
Au      22.85991010      29.80578354      22.23087123 
Au      25.34001690      25.33056799      23.07093663 
Au      20.05859797      25.67924637      18.91312760 
Au      29.51534959      27.15212445      25.42489451 
Au      19.33843137      24.31466527      29.58031735 
Ag      17.91474773      22.17271036      27.96627536 
Au      20.02400635      28.44193644      29.44749475 
Au      23.74931282      25.81835070      31.70267084 
Au      20.98459279      26.38539787      31.23371245 
Au      26.34033992      18.99437297      22.11670368 
Au      24.57400966      19.45155102      30.94887680 
Au      20.29165615      17.61237925      28.74283050 
Au      28.93740329      24.84670903      20.79138343 
Au      19.52804862      30.23237898      24.60374986 
Au      25.72171350      29.60515318      22.79322533 
Ag      24.96442707      27.15048162      18.22049672 
Au      28.42897508      20.78683578      20.83593333 
Au      29.14068378      27.44238341      28.34982947 
Ag      30.10035664      20.87404656      27.36118147 
Au      18.11323583      23.88905325      20.27694631 
Au      17.64512553      19.63838656      20.63126668 
Au      25.75885210      27.73280843      30.54018534 
Au      28.06241054      23.48613405      31.31447407 
Au      21.96671060      30.23439588      28.11310518 
Au      21.79014251      24.11023479      32.94845238 
Au      18.66366683      27.95941819      20.07584681 
Au      16.23475732      21.93350529      21.62763655 
Au      30.52816991      25.07855603      27.18161285 
Au      23.38937495      23.50764633      24.33938300 
Au      20.02233066      29.99692040      21.66068929 
Au      16.49127416      20.01729039      26.42324025 
Au      26.70389496      17.02886037      26.88948349 
Ag      30.01916016      25.27613249      30.08177467 
Au      17.59701131      28.45813339      25.86888904 
Au      16.16961051      26.34795952      24.26681885 
Au      28.52165545      29.18637782      23.41212568 
Au      27.86576660      26.90456114      19.01674706 
Au      24.08205204      19.12689831      18.61335218 
Au      27.34260682      16.83714373      23.94637029 
Au      26.92028001      18.78958446      19.18316468 
Au      25.93830415      21.37030067      32.66765802 
Au      12.39503104      18.80022103      21.94485840 
Au      23.01300915      21.15843661      16.84797250 
Au      26.35341116      29.21516988      19.75778596 
Au      20.00767929      19.63750776      32.50111821 
Au      26.07696394      17.14822705      29.80150388 
Au      29.25353345      18.65609533      22.74113453 
Ag      27.72416540      29.78058523      29.35639190 
Au      15.10063743      22.46239870      27.38305410 
Au      26.09542344      20.83935127      17.24017508 
Ag      24.52308672      23.78974482      33.61788802 
Au      23.61756982      25.21614336      16.43157095 
Au      17.46317933      17.97425628      28.24238882 
Au      19.07027948      30.47579523      27.54619859 
Au      23.51826055      29.47940767      19.26950398 
Au      22.43199152      25.59900646      22.44678038 
Au      16.01710275      20.12995806      29.30170399 
Au      27.43410358      19.10832968      31.43548983 
Au      29.17492009      28.95431291      20.59018391 
Au      16.38771057      24.52603265      28.94525961 
Au      31.97487610      22.78403748      26.12318940 
Au      16.56006772      21.66739091      18.74124633 
Au      24.89198362      31.60959804      20.69278338 
Au      21.98143434      31.74136746      20.31109314 
Au      20.71674062      25.45258788      16.02836445 
Au      24.26793484      31.91176061      23.97655379 
Au      20.67336592      29.73416346      18.71224198 
Au      23.06568890      14.98607722      21.56241971 
Ag      30.40536045      22.50934082      19.62891610 
Au      25.10998480      22.91603243      15.48657157 
Au      18.75399461      23.71587610      17.25076617 
Au      28.93998015      20.51299009      18.02541921 
Au      17.53570310      22.56952460      30.96976486 
Au      17.16767532      28.69267679      28.77583045 
Au      27.81844940      16.68680994      21.04540645 
Au      15.52822530      26.96692127      27.04770648 
Au      18.69536102      15.70623446      27.13065206 
Au      19.57343146      15.39418112      23.89032614 
Au      18.06165892      26.76820000      30.79240214 
Au      20.09571389      15.30465517      21.16117134 
Au      27.24237272      31.58996676      24.26569200 
Au      24.81194058      15.20108637      28.25430697 
Au      23.94822466      23.32136220      21.42293888 
Au      20.07854890      21.16071315      16.35127277 
Au      27.87704251      22.72897807      15.94441412 
Au      31.35622992      20.43474898      21.70084363 
Au      26.80748639      31.81839463      27.56347810 
Au      25.79173492      14.86621337      25.15807157 
Au      28.65982229      16.19417605      28.83894196 
Au      25.93446462      14.87314786      22.23459019 
Au      32.56083917      22.55787131      23.29530542 
Au      25.73404930      30.45902269      31.40245380 
Au      22.93533346      30.86016771      30.80075371 
Au      24.18212980      16.84544836      31.94473182 
Au      31.31882659      17.80784057      24.70480267 
Au      16.95870212      26.11840808      18.60039698 
Au      31.51735738      22.98356830      28.86724273 
Au      29.34681672      15.98496653      25.94093953 
Au      15.50721315      29.22181948      23.90984438 
Au      16.04856347      29.01741852      21.03594887 
Au      16.97752111      31.18133833      25.58626979 
Au      29.48612038      24.80582542      17.98715516 
Au      30.76386029      17.97463463      27.59984597 
Au      18.51943303      17.53243686      30.95295947 
Au      23.93775737      19.72346988      33.77461518 
Au      18.10287799      30.76824813      19.76103314 
Au      17.42911243      31.02881018      22.64352381 
Au      14.18089176      27.07766715      22.30706020 
Au      32.62898426      19.95106727      26.33067418 
Au      24.80270598      25.53313894      25.97211058 
Au      33.07367322      26.64102139      23.13302300 
Au      24.78087769      20.08315068      14.85106382 
Au      20.12470665      31.18429410      30.14157853 
Au      31.81989769      27.68303137      27.10165099 
Au      23.77300075      28.52912703      32.56248969 
Ag      29.83005104      15.82685670      23.02034295 
Ag      22.46963915      17.06986023      34.40750856 
Au      13.20976229      19.56920924      28.57269960 
Ag      24.14404238      27.89264620      15.50290892 
Au      15.17880155      17.48987429      30.90043302 
Au      25.73096496      25.63720256      14.62231805 
Au      28.87542973      30.57790721      32.50860777 
Ag      22.69665215      30.16685895      16.65156190 
Au      21.88250456      21.77104456      34.99576085 
Au      31.48735003      28.19008827      31.39022739 
Ag      19.54648103      14.97458726      29.83005052 
Au      22.24658448      25.24690592      12.78369596 
Au      16.10958411      14.68697564      28.31739947 
Au      25.61576158      33.83233640      29.35899796 
Au      26.73731925      14.57342336      31.23844807 
Au      28.44973799      13.29649455      23.94936074 
Au      16.19045178      17.08565534      19.42305393 
Au      16.11822565      17.19903423      23.27984535 
Ag      20.82038464      15.62904103      17.63682682 
Au      11.80888323      24.59406265      23.00259188 
Au      14.56064089      30.13303954      27.11393665 
Ag      24.32482354      21.38434226      26.15716241 
Au      14.89238663      19.85261065      20.14696357 
Au      25.44528907      31.14986192      17.94759292 
Au      28.80687245      20.42263914      14.35275680 
Ag      30.28498703      27.07654973      22.54226410 
Au      31.07514698      24.93361628      24.23015443 
Au      31.90744331      24.72886845      21.44602843 
Au      20.47448843      23.79008006      23.79885925 
Au      25.26798604      14.82444368      16.00897256 
Au      30.79633479      29.60558246      25.02377381 
Ag      25.75877373      23.38732699      27.86355817 
Au      27.09670634      27.55731267      16.34384540 
Au      20.74647820      31.45791524      33.17072908 
Au      17.62729627      23.97384910      23.26841723 
Ag      22.93978525      19.33221503      24.47817631 
Au      27.77450893      20.92982150      23.83674586 
Au      19.58220738      25.89661337      21.90766004 
Au      24.90429263      30.97776369      14.76896485 
Au      25.15190590      19.28290556      27.97730277 
Au      19.01112948      26.07714688      24.81821791 
Au      20.52269598      28.15500808      26.48247313 
Au      21.39605930      26.04894652      28.30716370 
Ag      29.15328156      23.01416232      25.52156618 
Au      19.12236932      21.73329740      22.15739195 
Au      24.47117079      17.04047887      23.41374265 
Au      22.95289649      28.13212973      29.86684587 
Au      20.61905869      19.47547572      21.11752448 
Au      20.34997095      22.18988843      31.29283234 
Au      24.89167803      30.07861651      28.76534299 
Ag      18.03383277      28.24584011      22.96221011 
Au      28.14137162      18.95986286      28.57168420 
Au      18.86587629      20.15303650      29.79342518 
Au      29.78456462      22.74948763      22.60986357 
Au      19.56009466      21.59383850      19.17414202 
Au      18.20454034      17.76622300      25.19594120 
Au      15.62740039      22.12025485      24.54916412 
Au      16.66662842      26.14818247      21.39356674 
Au      26.53461869      24.91500718      17.28717601 
Au      28.05528270      29.53631471      26.31306123 
Au      17.16039110      19.88289259      23.51974611 
Ag      18.76224349      17.60579714      22.33211829 
Au      30.66297071      20.68167629      24.47247130 
Au      22.15889707      27.47234924      17.58428877 
Au      21.11867969      19.30858204      18.24718876 
Au      22.14917643      17.18175323      19.86472510 
Au      21.85776878      15.40064327      27.58843410 
Au      19.00142449      24.48063974      32.45351889 
Au      26.38310674      25.65534752      32.53651044 
Au      14.75421998      24.19706709      22.69187800 
Au      29.52991191      20.78239512      30.20693669 
Au      23.83656646      32.07029015      26.82286261 
Au      22.46007202      15.18758441      24.78281613 
Au      24.94812492      16.95697589      20.42420084 
Au      28.58476067      27.73797009      31.15791716 
Au      19.25547278      17.46351783      19.50923782 
Au      27.74304645      31.23937671      21.50355790 
Au      15.27879746      24.04597110      19.86352887 
Au      21.31746606      17.04492547      31.46485620 
Au      21.12392247      32.14282626      23.09986052 
Au      14.09257611      24.51337447      25.35512083 
Au      22.39782146      23.08036652      14.79304437 
Au      30.73092720      26.75535744      19.63972710 
Au      18.27310170      19.44931297      17.70478174 
Au      22.80727515      18.31296099      16.17292678 
Au      15.54293106      17.33053212      26.16213383 
Au      30.31449844      29.95029800      28.01479163 
Au      29.79419491      18.22321294      19.89686806 
Ag      13.59551258      21.49303696      22.56315833 
Ag      30.27433228      17.78272315      30.79097701 
Au      26.73655078      15.97828416      18.46968407 
Au      20.78457360      32.29496124      26.35427731 
Au      19.25315032      27.97009235      17.13876599 
Au      25.80151237      18.01218244      16.58877355 
Au      14.45665602      19.43973153      24.47000010 
Au      19.09422930      33.45312555      20.79994243 
Au      23.89063686      21.98017639      12.23007607 
Au      34.71048922      22.55744736      27.41768367 
Au      29.17341336      32.84971515      29.34523077 
Au      19.26688727      31.15887294      16.47895176 
Au      23.59252454      15.01132653      18.79517106 
Au      13.79677151      27.05192510      19.27786711 
Au      20.98364670      26.75637707      34.41364246 
Au      19.61981155      28.57463732      32.30110628 
S      20.66016935      15.77905481      33.46924883 
S      28.55234654      32.54216464      19.58930602 
S      23.82750878      22.84871301      35.83185090 
S      24.19945570      18.22702355      35.63628523 
S      12.35533403      18.19958212      24.21764192 
S      32.28909097      17.48756845      29.42577878 
S      31.51433009      14.83034065      21.48271131 
S      29.99175367      19.39882949      16.10300010 
S      28.20978832      22.02180213      33.28781904 
S      23.06973471      27.85069982      34.78140004 
S      13.43951759      29.95231876      25.04808046 
S      16.34210881      18.00678528      17.22725510 
S      32.81734654      23.23625563      19.73854881 
S      26.77598592      30.78715943      33.56378911 
S      22.82409430      32.44931340      32.68396635 
S      17.21159906      31.47913790      17.60707178 
S      11.25655548      22.30992833      22.87128830 
S      25.01412583      13.24736783      26.79351887 
S      33.81034093      29.02844991      27.58627370 
S      28.51001820      26.52382073      33.35010805 
S      23.91902208      24.21353748      11.47239814 
S      27.49253574      25.88358201      12.96086941 
S      19.12625473      33.39889268      30.27304269 
S      28.80509622      17.56527289      32.74658230 
S      21.27489225      33.99729434      24.68023727 
S      31.01494319      32.26347084      27.99275981 
S      28.85779492      29.22970315      16.22242558 
S      33.53881741      17.26594115      23.82431041 
S      34.87789963      21.78143486      23.54320984 
S      19.10577425      13.77103548      25.66878645 
S      20.87765081      33.66396377      19.26082739 
S      12.55049360      19.40042897      19.67250919 
S      18.72034784      30.36190856      33.66924114 
S      31.83520097      31.01857264      23.35524767 
S      35.38562387      27.32359135      23.35699321 
S      31.11338709      30.49569688      31.76912655 
S      23.01219660      13.29765719      23.33154353 
S      32.02545331      19.17906806      19.71579697 
S      28.64462838      14.63178583      17.78251135 
S      15.50117700      30.42803839      29.26443725 
S      31.51886819      21.91640604      31.06345272 
S      20.50900648      26.46041950      13.80508900 
S      17.19150366      26.96003983      16.32093353 
S      27.28990835      12.84064079      21.94231440 
S      16.82173904      33.54171266      26.18837937 
S      15.29820085      21.65976438      31.12749242 
S      21.13029067      16.74174389      15.45730946 
S      24.67330069      29.11234158      13.36936276 
S      20.17873984      22.16463105      14.14447873 
S      21.12756008      31.24367373      15.04079403 
S      23.64329673      34.14594688      28.11784484 
S      13.33978551      17.37422688      29.42910634 
S      24.38470091      33.52125316      22.12654962 
S      27.74784559      21.22196007      12.39933219 
S      16.47282650      23.01308787      16.69861211 
S      26.10996279      16.54120135      14.63825005 
S      17.24986734      14.06391906      30.27826405 
S      28.61587497      14.01197920      29.92067271 
S      27.52365216      33.78777862      30.75182296 
S      32.70439441      28.20795942      19.64401892 
S      25.04967891      14.77737915      32.87320928 
S      14.33980707      29.34428570      19.28437809 
S      13.37751021      25.84070238      27.27114543 
S      34.53408310      20.24672638      27.83683455 
S      30.21125211      23.59453557      16.02403755 
S      18.83651619      25.73019225      34.55628229 
S      35.30570547      24.81763602      27.09570394 
S      19.79325643      20.65389957      34.68869594 
S      32.19070648      25.96729865      31.12636374 
S      23.79701720      19.66867943      12.67008338 
S      17.25342797      33.46202211      22.27034792 
S      15.69870653      26.14119599      30.66944387 
S      11.84618633      26.95963961      22.99950369 
S      24.32051269      13.17604583      17.40205772 
S      13.06639892      24.80757697      19.12877978 
S      21.68874282      13.73383805      29.34237151 
S      16.76691005      17.52167980      32.63918166 
S      15.76213216      15.76122620      21.36131658 
S      14.85138803      15.01506574      26.34341191 
S      25.21431086      32.82541482      16.20552630 
S      29.66577966      13.56336967      25.94994558 
S      20.06593999      13.85723538      19.17612890 
S      27.24831002      33.49745270      25.75880950 
S      12.77820277      21.70690004      27.70403854 
C      21.31760245      14.07328839      33.30766785 
C      30.33177338      32.85736653      19.91241900 
C      23.21511932      24.23927097      36.86341705 
C      23.45988457      19.03809030      37.10775999 
C      11.02413490      19.18577096      25.00293371 
C      32.59651976      15.68170958      29.30668139 
C      31.66073759      13.01562902      21.73325102 
C      31.67870621      20.10514778      15.97179767 
C      28.04443309      23.02647930      34.80948125 
C      22.67771672      29.36852260      35.73026787 
C      13.17350661      31.67535456      24.47597239 
C      16.98926534      16.64196316      16.18374124 
C      33.29466664      24.30298341      18.32923317 
C      26.57858476      32.54054809      34.05626919 
C      22.46380448      34.10932449      31.99599703 
C      17.02483379      33.30523884      17.56388283 
C      10.45898951      22.20444176      21.21921820 
C      26.45110901      12.26140153      27.35371852 
C      34.76638083      28.14599917      28.87942999 
C      28.11213797      27.63601697      34.74924596 
C      23.14129003      24.12356286       9.80774112 
C      26.76810612      26.51721008      11.40253753 
C      17.68575817      33.25668380      31.40239112 
C      29.57554153      18.54731308      34.09297819 
C      19.80466138      35.07127429      24.48961076 
C      32.52178995      32.42540085      29.02069657 
C      28.61800313      30.20286682      14.68947562 
C      34.44944124      16.57980892      25.26285542 
C      35.66088327      21.91349540      21.88962265 
C      17.53173220      12.95511692      25.20756403 
C      21.81290303      35.14997515      19.79310268 
C      12.48749435      17.85434405      18.68605797 
C      18.80176767      29.81926643      35.42048478 
C      33.52886478      31.42845658      23.92472469 
C      35.70589781      28.76798204      22.27250713 
C      32.08218020      30.82065078      33.29895016 
C      21.50420483      12.30981805      23.02094437 
C      33.25104022      17.89756791      20.16732309 
C      28.12290665      12.87996251      17.95047419 
C      14.29883861      29.68356144      30.43327694 
C      32.92351191      20.74666249      31.16442695 
C      18.99090283      25.69837335      13.11321353 
C      15.97218304      28.29822867      16.04902013 
C      26.18996318      11.42660789      22.33876295 
C      15.15803935      33.91967940      26.86708815 
C      15.25144228      20.77080207      32.72730949 
C      21.93316851      15.56474910      14.30401643 
C      23.11637731      29.34866246      12.42734663 
C      20.39503177      20.76617489      12.98288928 
C      21.54413965      33.03348938      15.05192510 
C      24.09543195      35.45098728      26.91071153 
C      11.89087883      17.27827797      30.55825091 
C      25.93662590      34.48211002      22.24461243 
C      29.07756291      21.11677201      11.13292925 
C      16.51758794      21.81978622      15.31324385 
C      27.90923970      16.24891968      14.45040214 
C      17.46255425      12.24599485      30.11181713 
C      29.93295279      13.88597411      31.19543477 
C      28.00577238      35.56041655      30.85247376 
C      32.47693809      29.37001754      18.24072595 
C      26.02348883      15.23011356      34.36278339 
C      12.94168794      30.17661251      20.13328883 
C      12.03362412      26.96656690      26.74537839 
C      36.05108059      19.57731351      27.04969481 
C      30.44927225      24.89571107      14.75817046 
C      18.97966518      24.49886192      35.90980869 
C      36.58569682      24.69402210      25.78440763 
C      19.76240247      19.30789498      35.93278257 
C      32.11786010      25.28595935      32.82860896 
C      25.04731833      18.85329325      11.60812517 
C      15.77439938      33.66941449      21.20388141 
C      15.32338279      25.30957665      32.25405505 
C      10.74396195      27.36402678      21.58793650 
C      22.83885028      12.51104435      16.54802010 
C      12.96486242      24.44725468      17.33249251 
C      21.26997188      12.18446452      28.45693338 
C      16.74529222      15.86210007      33.41686842 
C      13.97111595      15.37499841      21.30663657 
C      13.07093043      14.92648390      26.76145175 
C      26.88771941      33.49979458      15.86712641 
C      31.42861229      13.28796392      25.52150667 
C      18.29513876      13.53954241      18.80533695 
C      28.96402653      34.13303446      25.78165377 
C      12.18528031      22.65700377      29.15567044 
H      22.37884793      14.07117229      33.03757496 
H      21.17975593      13.57267426      34.27336785 
H      20.74257424      13.55460517      32.53139629 
H      30.78588317      33.25068139      18.99583323 
H      30.39383157      33.60769717      20.70961897 
H      30.84930944      31.94581305      20.23300962 
H      24.09233705      24.80078206      37.20683324 
H      22.56328629      24.90936566      36.29052543 
H      22.67682656      23.83449518      37.72748791 
H      23.25689805      18.26627833      37.85892323 
H      24.19011470      19.75774196      37.49554021 
H      22.53940915      19.57508372      36.85562678 
H      11.21164250      19.18202545      26.08443248 
H      11.01264257      20.21568374      24.63026257 
H      10.06855947      18.69567517      24.78298849 
H      33.38435286      15.51926325      28.56139767 
H      32.93763390      15.31922831      30.28343181 
H      31.69083945      15.14620790      29.00380952 
H      30.69921623      12.57104077      22.01381117 
H      32.03399422      12.55750207      20.81094267 
H      32.38854398      12.85349207      22.53746534 
H      31.64219847      21.19606633      15.87932519 
H      32.21486883      19.82509628      16.88729489 
H      32.16785640      19.66336234      15.09624972 
H      27.72317871      22.36732047      35.62392892 
H      29.02806648      23.45644966      35.03356232 
H      27.31610494      23.83519389      34.66906161 
H      21.99564135      30.02631725      35.17376934 
H      22.23389977      29.07996891      36.69005615 
H      23.62447586      29.89406936      35.90444130 
H      12.48336343      32.17719200      25.16358417 
H      14.12125923      32.22080172      24.42175170 
H      12.72341257      31.61961437      23.47729978 
H      17.18289309      17.05332391      15.18600109 
H      17.92116076      16.23352894      16.59068148 
H      16.22578668      15.85830684      16.12200123 
H      32.44004134      24.89526680      17.97878374 
H      34.10553953      24.96995023      18.64230284 
H      33.64073628      23.64601938      17.52183922 
H      26.91523430      33.21170527      33.25949310 
H      25.51221276      32.70285673      34.25594118 
H      27.16419922      32.70418043      34.96828455 
H      21.61785357      34.08157327      31.30109054 
H      22.24013115      34.78093252      32.83299923 
H      23.36579379      34.44739967      31.46942328 
H      16.10565247      33.55972706      18.10449987 
H      17.87996742      33.80457311      18.03243222 
H      16.93080897      33.61511825      16.51695086 
H      11.07702907      22.67843024      20.44966124 
H      10.32938481      21.14146750      20.98186017 
H       9.48223553      22.69809641      21.26909336 
H      27.31881195      12.88924624      27.57461319 
H      26.15167105      11.72168202      28.26020448 
H      26.70725680      11.54892311      26.56015361 
H      35.72645213      28.66370596      28.99182763 
H      34.20021639      28.19613557      29.81823611 
H      34.94103445      27.09884136      28.61048489 
H      28.06697456      27.02302220      35.65777427 
H      28.91015761      28.38289324      34.84133457 
H      27.15577185      28.14528634      34.59848663 
H      23.03158952      25.14639958       9.42933661 
H      23.81311618      23.55558868       9.15407123 
H      22.16355343      23.63565940       9.84943476 
H      25.90849849      25.91312379      11.09518715 
H      26.45267299      27.55122199      11.58995276 
H      27.54920991      26.49129603      10.63391485 
H      18.07201919      33.09659057      32.41633965 
H      17.12514474      34.19727187      31.35517727 
H      17.04062211      32.42048792      31.11394574 
H      30.46857612      18.01682115      34.44278402 
H      29.84209801      19.55251127      33.75037743 
H      28.84990800      18.62901984      34.91114818 
H      18.87601691      34.49513237      24.45240719 
H      19.77590181      35.75550467      25.34604277 
H      19.92084427      35.63854391      23.55805093 
H      32.35531315      32.02280249      30.02510170 
H      33.31752033      31.85975279      28.52036875 
H      32.78199824      33.48898844      29.07088304 
H      29.36453682      31.00499516      14.66069872 
H      28.77498791      29.52113803      13.84482138 
H      27.60331880      30.62092755      14.63281823 
H      34.13667702      15.53487428      25.37694034 
H      35.52396662      16.62193821      25.05188791 
H      34.21730019      17.13602083      26.17703689 
H      34.96704670      21.62008751      21.09535743 
H      35.93916774      22.96520578      21.74949268 
H      36.55731834      21.28381685      21.87525188 
H      17.07321761      12.53452229      26.11079835 
H      16.83501248      13.66058141      24.74523994 
H      17.77360073      12.15266292      24.50014159 
H      22.70789766      35.21071959      19.16198382 
H      21.18504678      36.03398142      19.63562475 
H      22.11500212      35.07439587      20.84260126 
H      12.72276311      18.12488681      17.64989786 
H      13.22223763      17.12278793      19.03842797 
H      11.47369446      17.44313994      18.74644339 
H      18.74507836      30.70488664      36.06325091 
H      17.93559587      29.17068352      35.59756116 
H      19.71751064      29.25486572      35.62408446 
H      34.07971102      30.53245852      24.23967122 
H      34.06310624      31.93441358      23.11227548 
H      33.42618028      32.10727095      24.77986490 
H      35.93104506      28.38842587      21.26905031 
H      34.83252978      29.42791889      22.21056373 
H      36.56925041      29.31551361      22.66717187 
H      31.80890472      30.12828624      34.10007456 
H      33.14456793      30.70513342      33.05467693 
H      31.88311407      31.85164183      33.61286964 
H      21.27346052      11.75254185      23.93662677 
H      20.65847875      12.95980825      22.75966276 
H      21.71363292      11.62009370      22.19509934 
H      33.40453003      17.25950860      19.28866601 
H      34.18668841      18.40270224      20.43620426 
H      32.91174672      17.28207884      21.00519390 
H      27.36157674      12.68359569      17.18572563 
H      29.00176481      12.24796890      17.77880445 
H      27.71106873      12.68609879      18.94639055 
H      13.38303539      30.28498493      30.42418864 
H      14.07994864      28.64394060      30.16943495 
H      14.75606658      29.71471925      31.42978424 
H      32.75577760      20.09201891      32.02850227 
H      33.02393898      20.14168420      30.25917131 
H      33.83791971      21.33351950      31.31286077 
H      19.04424527      24.60499755      13.16328011 
H      18.14789703      26.05872944      13.71638516 
H      18.88350492      26.02939754      12.07408052 
H      15.96397444      29.02062954      16.87001853 
H      16.23787113      28.80936552      15.11593917 
H      14.98127595      27.83708500      15.95687082 
H      26.80894105      10.54236390      22.52703123 
H      25.55756624      11.64622392      23.20507114 
H      25.55497768      11.25732501      21.46061508 
H      14.47125154      34.03397156      26.02030185 
H      14.80495253      33.11749363      27.52459596 
H      15.21879763      34.86457246      27.41871260 
H      14.98000927      21.49977801      33.50059971 
H      14.49022869      19.98327668      32.66875761 
H      16.21956085      20.32098846      32.96689495 
H      22.16089609      16.10043632      13.37482622 
H      22.86517244      15.15807093      14.72187156 
H      21.22934845      14.75064675      14.09313719 
H      22.31486295      29.73713681      13.06496791 
H      23.30831113      30.04392812      11.60247426 
H      22.82677304      28.36642845      12.03228832 
H      19.39797957      20.37195135      12.75175267 
H      20.87282013      21.13985112      12.06897085 
H      21.01201077      19.97428837      13.41887757 
H      22.51717310      33.14815548      14.55843701 
H      20.77452764      33.57687560      14.49280148 
H      21.60595072      33.42062141      16.07411208 
H      24.13744194      36.40961193      27.44009968 
H      25.06017039      35.23231781      26.43931064 
H      23.30486953      35.47111845      26.14976958 
H      11.94215466      16.31974948      31.08727950 
H      11.88934022      18.10079195      31.27877653 
H      10.98211093      17.31700894      29.94663810 
H      26.08201025      35.01297193      21.29670290 
H      25.82752118      35.19621960      23.06956644 
H      26.79164672      33.82154227      22.43954633 
H      29.98261669      21.63675402      11.45877833 
H      29.29802347      20.05677278      10.96201126 
H      28.69893595      21.57074344      10.21004555 
H      15.53461256      21.33929627      15.24632148 
H      16.73231436      22.37782970      14.39413251 
H      17.29518651      21.06167212      15.47509086 
H      28.36587813      15.93240763      15.39411191 
H      28.04824975      15.47322553      13.68836793 
H      28.35995149      17.19235844      14.11634945 
H      16.47793620      11.76526477      30.12116080 
H      17.99152159      11.99033275      29.18853066 
H      18.04641856      11.90040722      30.97351192 
H      30.87964610      13.68163527      30.68300074 
H      30.01277141      14.80945542      31.77966206 
H      29.68505475      13.04593835      31.85419575 
H      28.11585879      36.00123564      29.85781965 
H      27.22573335      36.09117261      31.41050575 
H      28.95650204      35.62040174      31.39442872 
H      32.63304927      28.80273030      17.31553666 
H      31.46905079      29.80127653      18.23418965 
H      33.22975366      30.16232811      18.32187379 
H      26.72958837      16.03711195      34.13807141 
H      25.32180004      15.55291326      35.14102395 
H      26.56607056      14.33596840      34.69041783 
H      12.77906983      29.75100575      21.12887329 
H      13.20255326      31.23798485      20.22469008 
H      12.03896852      30.07036358      19.52108494 
H      12.24204443      27.43294203      25.77854028 
H      11.11290252      26.37503317      26.67438356 
H      11.92427030      27.74352057      27.51172749 
H      36.09095432      19.82942069      25.98400124 
H      36.92153540      19.99135090      27.57092767 
H      36.03397776      18.48820113      27.17377787 
H      29.71050290      25.69683318      14.86191436 
H      31.45898433      25.30418830      14.88600281 
H      30.35044442      24.43726342      13.76637205 
H      19.82967717      23.82453300      35.75177270 
H      19.09342326      25.03948044      36.85638540 
H      18.05212961      23.91433624      35.92396959 
H      36.78162353      25.70401291      25.40478057 
H      37.49298609      24.28100326      26.24015775 
H      36.24860848      24.04749452      24.96767134 
H      19.79191000      19.75222486      36.93443144 
H      18.82113973      18.76178223      35.79748744 
H      20.60352429      18.61432866      35.80195479 
H      32.18787762      24.19445994      32.73889299 
H      32.96832439      25.67155158      33.40147368 
H      31.17516531      25.55360383      33.31969034 
H      25.98102069      19.42441203      11.58915142 
H      25.22565117      17.85530886      12.02721695 
H      24.62914506      18.77044966      10.59819531 
H      14.89301330      33.59168322      21.85203021 
H      15.80541438      34.66242445      20.74130214 
H      15.73430104      32.89163332      20.43435685 
H      15.26925975      26.07534380      33.03659603 
H      14.35583834      24.80477758      32.14781500 
H      16.09895337      24.57389224      32.50444851 
H      11.10161635      26.90603200      20.65915096 
H       9.73665185      27.00387732      21.82566797 
H      10.72634412      28.45485661      21.47989275 
H      22.26165353      11.94689518      17.28985024 
H      22.21379310      13.31189422      16.14116763 
H      23.17561441      11.84634153      15.74433065 
H      12.72629827      23.38161956      17.23015231 
H      12.16094558      25.05222050      16.89861574 
H      13.91583835      24.65419961      16.83118922 
H      22.16791503      11.83295300      27.93378738 
H      20.96218877      11.44059205      29.20194659 
H      20.46473955      12.34535420      27.73039830 
H      16.66398855      15.07115880      32.66392122 
H      17.68573655      15.75192227      33.97062970 
H      15.89193160      15.82710812      34.10400393 
H      13.36036531      16.28786150      21.33946231 
H      13.76260438      14.80792929      20.39202653 
H      13.74517922      14.75633925      22.18353295 
H      12.81512859      13.87269353      26.92257307 
H      12.84599491      15.51562035      27.65631929 
H      12.51488697      15.32162167      25.90248874 
H      27.65229936      32.71729715      15.91179260 
H      26.87936157      33.97384709      14.87926967 
H      27.09664016      34.24765403      16.64121674 
H      31.74471810      13.94274393      24.70245281 
H      32.01821208      13.50782226      26.41968500 
H      31.56100048      12.23705258      25.24032259 
H      18.22833854      13.07783214      17.81332044 
H      17.90425516      12.84705748      19.56005088 
H      17.70657531      14.46449053      18.82780256 
H      29.07214576      34.81830971      24.93203503 
H      29.12588530      34.67350160      26.72221476 
H      29.69447192      33.32304171      25.69905626 
H      12.17988331      23.71530131      28.86497750 
H      11.16913837      22.32377748      29.39498953 
H      12.84848422      22.51167698      30.01572707 
