699
Properties=species:S:1:pos:R:3 i=167 optimized=T E=-11392.3905868365 pbc="F F F" jobid=279_84-Ag-59_9-000003-PBE
Ag      33.20174307      25.54043675      25.93857732 
Ag      31.50649573      29.73958729      22.29203112 
Ag      34.34504109      28.30603050      25.39727840 
Ag      29.80702714      15.02455821      19.68480725 
Ag      33.76912721      19.46508451      23.67785229 
Au      27.42320460      23.15588883      13.14809792 
Au      18.29552679      33.25309181      28.27001304 
Au      28.55061591      30.71521889      18.04046304 
Au      24.92632618      21.23360113      23.29476991 
Au      26.32012864      23.27318333      24.95454801 
Au      28.23024016      25.10831234      23.63700902 
Au      23.78149748      21.67112510      29.00200490 
Au      23.37002674      27.88755854      26.94885036 
Au      26.91064691      23.06300588      22.00379338 
Ag      22.41334299      19.54951185      27.36971133 
Au      27.24375338      21.18392707      26.76260530 
Au      22.04945479      21.46819028      22.75350274 
Au      21.04391501      23.59317982      20.89313414 
Ag      27.70351264      25.32675864      26.55088692 
Ag      19.99710999      24.02235649      26.68771570 
Ag      25.48384798      21.06105756      20.35344512 
Au      24.30374693      25.74882945      28.80403735 
Au      23.91252455      27.72652525      24.06209642 
Ag      26.23408023      27.62854619      27.55387314 
Ag      20.91699261      21.89520414      28.41518822 
Ag      22.87933796      23.73613740      27.19072724 
Ag      21.50770430      21.68421949      25.60487121 
Ag      19.56383404      19.81188371      26.88067293 
Ag      25.85844631      19.10669442      25.13044830 
Ag      25.22538623      23.67859886      30.74703268 
Au      23.00861033      25.39277367      19.61110506 
Ag      21.02988364      27.96239651      23.58600092 
Ag      26.76956129      27.40890694      24.68220022 
Au      22.59448746      21.34850084      19.86702652 
Ag      21.97083120      25.88055059      25.37416727 
Ag      27.19820285      25.50497535      29.46645092 
Ag      20.17267680      19.63764556      24.03879930 
Au      25.93817021      25.09503637      20.17138433 
Ag      23.53449100      19.19273653      21.68363931 
Ag      22.34384788      23.94946562      30.09336039 
Ag      21.08353044      17.45247138      25.81336517 
Ag      21.59944157      27.67233058      20.67290016 
Ag      24.48124272      27.44117023      21.23306424 
Ag      24.53765889      23.12872663      18.53517515 
Ag      28.64399876      23.19372021      28.43343454 
Ag      18.66014688      21.95922915      25.08132483 
Ag      26.70790004      21.32087158      29.64188405 
Ag      22.43289117      30.10912929      25.13194812 
Au      27.34322699      27.18231771      21.73627515 
Au      21.82524659      19.74582021      30.21110057 
Au      18.49174276      26.37386584      27.71151074 
Au      23.19341005      21.76635070      31.93528380 
Ag      21.58934132      23.40692883      17.94497264 
Au      17.09321236      24.31574531      26.16256688 
Ag      27.45515645      22.81442927      19.07288630 
Ag      23.91581391      17.17972546      26.32762158 
Ag      23.30865483      17.44211679      29.24056861 
Au      25.27565593      29.80319953      25.71288536 
Ag      21.67373511      17.23555402      22.93950649 
Au      28.78689327      18.79741451      25.71641847 
Ag      22.96515454      29.82211752      22.25866184 
Ag      25.39250033      25.36243900      23.06467671 
Ag      20.08609148      25.63505778      18.98392572 
Ag      29.68324970      27.20099131      25.27567043 
Ag      19.41432786      24.22361066      29.56797105 
Au      18.04423582      22.13955560      27.91771289 
Ag      19.99072552      28.30528156      29.35031996 
Ag      23.74724983      25.99126432      31.70019483 
Ag      20.87668383      26.29691711      31.19816063 
Au      26.38701433      18.98533839      22.18347704 
Ag      24.67555881      19.54858541      30.81950625 
Au      20.38879014      17.65215236      28.68715152 
Ag      28.90791146      24.81111314      20.71283363 
Ag      19.61988430      30.30519451      24.67254980 
Au      25.81995349      29.54377485      22.79175760 
Ag      24.94180363      27.14387342      18.28708983 
Au      28.39756559      20.73964267      20.88251216 
Au      29.10913312      27.41089441      28.15569776 
Au      30.07454769      20.92451889      27.30740777 
Au      18.20620172      23.89483562      20.33959568 
Ag      17.79173560      19.66107094      20.63641180 
Au      25.67733298      27.76437640      30.47077525 
Au      28.18257885      23.43881542      31.26148732 
Ag      21.93440996      30.18076897      28.09932187 
Ag      21.81121196      24.14054346      32.91312299 
Ag      18.69447584      27.97067993      20.12319992 
Au      16.39661746      21.95969944      21.65084739 
Au      30.58497680      25.13289191      27.07097425 
Ag      23.43955715      23.53546117      24.34237124 
Au      20.13405261      29.99687103      21.74345732 
Ag      16.68446092      20.02318793      26.33161071 
Ag      26.78156540      17.02977892      26.95434217 
Au      29.96384034      25.24426468      30.01234548 
Ag      17.66101403      28.50678633      25.93594221 
Ag      16.23284621      26.34817699      24.32466154 
Au      28.71293356      29.19364148      23.38236175 
Ag      27.86622023      26.83533364      18.92828007 
Au      24.09077359      19.01056517      18.72209212 
Au      27.37428875      16.79702822      24.01809833 
Au      26.91157378      18.72661439      19.27233875 
Au      25.95755265      21.46284079      32.58365746 
Ag      12.64363090      18.82452503      21.95285488 
Au      23.09403645      21.10273489      16.99498110 
Ag      26.39315429      29.18060389      19.81124885 
Ag      21.16622543      19.81139875      32.90622950 
Ag      26.12244040      17.23744048      29.81092561 
Au      29.25010230      18.62731998      22.76948235 
Au      27.61441214      29.64685068      29.16736897 
Au      15.28671599      22.37240405      27.32884784 
Ag      26.01743107      20.79245217      17.40019789 
Au      24.57823448      23.95680312      33.53720877 
Au      23.56128568      25.15235195      16.60058027 
Ag      17.55821371      17.93743338      28.10212480 
Ag      19.13112868      30.52482730      27.55345124 
Ag      23.55481571      29.48020361      19.38514844 
Au      22.50098115      25.66600988      22.50106191 
Ag      16.17059629      20.16489844      29.26544831 
Ag      27.48375987      19.20043235      31.42307977 
Ag      29.27871056      28.97037748      20.41571215 
Ag      16.49894241      24.41221908      29.00330362 
Au      32.04515048      22.86501144      26.03572474 
Ag      16.71865905      21.70754683      18.77711384 
Ag      24.91730884      31.59461441      20.73794234 
Au      21.98308024      31.74574689      20.35083538 
Ag      20.67798512      25.44181804      16.14230789 
Ag      24.41360851      31.88172491      23.87903130 
Au      20.71016485      29.67645523      18.85736590 
Ag      23.13130841      15.04843974      21.66449774 
Au      30.32556001      22.44003438      19.67142236 
Au      25.11039514      22.87457591      15.65874024 
Ag      18.71153154      23.63628776      17.34514316 
Ag      28.85812553      20.57184034      18.01568415 
Au      17.60901310      22.39637945      30.93062955 
Ag      17.19631478      28.70382395      28.81723219 
Ag      27.87146904      16.70445493      21.10500292 
Ag      15.66001082      26.82213724      27.14665476 
Ag      18.98134582      15.65623659      27.00188198 
Au      19.71079040      15.44445037      24.03380030 
Au      18.03391412      26.62011204      30.70597819 
Ag      20.23135852      15.32666053      21.25293018 
Au      27.39346454      31.55604014      24.29453857 
Au      24.94794637      15.21500966      28.27285104 
Au      23.99842970      23.33358239      21.44573542 
Ag      20.21992477      21.21674350      16.40920107 
Au      27.88356365      22.73655871      16.06475191 
Au      31.37706771      20.26404502      21.75606590 
Ag      26.82395190      31.77869415      27.44117345 
Ag      25.73636530      14.88639570      25.24854833 
Ag      28.76594705      16.33072245      28.92400203 
Ag      26.00532959      14.84363328      22.30166251 
Ag      32.60021825      22.53827779      23.18038160 
Ag      25.84246634      30.55929354      31.21925890 
Au      23.00492053      30.75037039      30.81647867 
Ag      24.12831122      17.05531350      31.96031814 
Ag      31.30606099      17.85949664      24.72103934 
Ag      17.11110750      26.00995845      18.57484056 
Au      31.57479419      22.94870079      28.79152168 
Ag      29.35801480      16.05614879      26.01169829 
Ag      15.60759645      29.24411727      24.00932892 
Au      16.14391904      29.04065571      21.08640149 
Ag      17.10170810      31.26936308      25.59819426 
Ag      29.43230816      24.67521029      17.86657316 
Ag      30.74269328      18.09725297      27.63471530 
Ag      18.48209808      17.43147083      30.77453493 
Ag      24.04276302      19.65373936      33.62906416 
Ag      18.20788686      30.85007124      19.80797157 
Au      17.54729332      31.03852130      22.70115051 
Au      14.30052675      27.08626221      22.36460862 
Au      32.65643383      20.04393614      26.39440799 
Au      24.84708709      25.58177172      25.91926299 
Ag      32.87743503      26.84177234      23.07251447 
Au      24.74723635      20.01544410      14.93321694 
Ag      20.16938647      30.94619449      30.25035412 
Au      31.80282047      27.79322643      27.17701644 
Ag      22.37556603      28.43792578      32.55408186 
Ag      29.85568904      15.82797489      23.02457431 
Ag      22.25049680      17.26781892      34.35456082 
Ag      13.98833770      19.62892543      27.37215093 
Au      24.05863957      27.82289688      15.56383795 
Au      15.10578300      17.65933191      30.39113315 
Ag      25.60645751      25.56767774      14.65025548 
Au      29.02889836      30.50571726      32.22879397 
Ag      22.68331610      30.10816983      16.73581590 
Ag      22.19706549      21.94299876      34.96862602 
Ag      31.20534507      28.17456548      30.16626485 
Ag      19.67014031      14.96291207      29.73521634 
Ag      22.71551132      25.59653001      13.68466255 
Ag      16.22916902      15.07589347      28.04271746 
Ag      24.82087887      32.76843892      29.47279848 
Au      26.52480083      14.60130178      31.07814985 
Au      28.58145057      13.37736818      24.09323734 
Ag      16.33217221      17.30357985      19.39710617 
Ag      16.16134450      17.28086016      23.21361770 
Ag      20.77624588      15.42912807      17.89217767 
Au      11.92343341      24.62369856      23.16165165 
Ag      14.86099655      29.99212094      27.04898432 
Ag      24.36197326      21.38709909      26.16181520 
Ag      14.94552003      19.94907559      20.31968605 
Au      25.41435859      31.05781997      17.98098441 
Ag      27.75720963      19.92940253      15.16963922 
Ag      30.16178709      26.93788487      22.42395938 
Ag      31.09127384      24.86498587      24.17814571 
Au      31.79598226      24.80590204      21.42002447 
Au      20.55823923      23.82070201      23.82571244 
Ag      25.22082781      14.87329636      16.18961358 
Ag      30.83662817      29.82386461      25.21504998 
Au      25.76891176      23.46587440      27.86166800 
Ag      26.91167169      27.69714587      16.37932903 
Ag      20.89191773      31.09261968      33.19858570 
Ag      17.70369830      24.05604477      23.28680694 
Ag      23.00406870      19.33295834      24.52245216 
Au      27.78521974      20.95561594      23.87706254 
Ag      19.63334710      25.92854695      21.95504198 
Ag      25.00136985      30.78147288      14.92190781 
Au      25.23009262      19.29219117      27.96599836 
Au      19.08098120      26.14644154      24.83946489 
Au      20.54098933      28.22148251      26.46105917 
Au      21.39065356      25.98819341      28.26121478 
Ag      29.18018976      23.05317445      25.50393592 
Ag      19.21816915      21.75602809      22.20171037 
Au      24.53300787      17.03494145      23.50426626 
Au      22.85436318      28.06751628      29.84468049 
Ag      20.70351233      19.47779135      21.16950814 
Ag      20.41045270      22.11486800      31.28789448 
Au      24.79435289      29.97903909      28.62868554 
Au      18.10504633      28.30039131      23.01643060 
Ag      28.12853831      19.05900567      28.58126606 
Ag      19.00119374      20.06856993      29.73579724 
Au      29.78277370      22.72361043      22.61963260 
Ag      19.62264356      21.59748164      19.24160898 
Au      18.22811294      17.78054834      25.22564597 
Ag      15.80971996      22.21196138      24.49852512 
Au      16.76704929      26.17845918      21.42145561 
Ag      26.50822120      24.93138464      17.28559961 
Ag      28.13496830      29.47609466      26.24426993 
Au      17.27513900      19.89909890      23.48012649 
Ag      18.87386092      17.60851339      22.41088204 
Au      30.73061784      20.68883155      24.45542280 
Au      22.13784234      27.44493449      17.71367915 
Au      21.15005725      19.34397565      18.31028153 
Au      22.20094585      17.17972252      19.96889791 
Au      21.99645890      15.42348529      27.58506638 
Au      19.01471455      24.34058108      32.41854719 
Au      26.50027777      25.67627151      32.43482761 
Ag      14.84679371      24.29288990      22.74653190 
Ag      29.62398346      20.89132519      30.18053205 
Ag      23.87971101      32.01549954      26.74068545 
Ag      22.58757500      15.11272347      24.78442343 
Ag      25.00847083      16.94972253      20.57504620 
Ag      28.47932618      27.77307091      31.12127879 
Au      19.32907528      17.48038902      19.59815757 
Au      27.77428963      31.16871532      21.51253093 
Au      15.39349874      24.06788734      19.91971848 
Ag      21.27533230      17.21565886      31.40333852 
Ag      21.28083581      32.14915538      23.19997403 
Ag      14.19553002      24.53357710      25.52193591 
Ag      22.33168501      23.02350446      15.00037632 
Ag      30.67727205      26.66014276      19.45655873 
Ag      18.35532211      19.44712839      17.75180759 
Ag      22.83023283      18.28115892      16.21899700 
Ag      15.50105399      17.43711370      26.07563877 
Ag      30.25347279      30.07790245      28.11889552 
Ag      29.76544641      18.35743390      19.74781719 
Au      13.77018941      21.64151145      22.51514721 
Au      30.48682282      17.58080706      30.98143434 
Ag      26.75135136      15.93261290      18.57008520 
Ag      20.96097985      32.42432974      26.39931411 
Au      19.26503388      27.92734977      17.27078733 
Ag      25.82777828      17.94811362      16.66290249 
Ag      14.54327636      19.53002067      24.36446971 
Au      19.04824293      33.52254268      20.90017853 
Ag      24.19057706      22.15575169      12.75961545 
Au      34.86139001      22.68017811      27.09759276 
Au      28.68533947      33.01520135      29.32369724 
Ag      19.40998649      31.04477552      16.63011990 
Ag      23.70360116      15.10842873      18.83373530 
Au      13.84705272      27.08784474      19.36856395 
Ag      20.64270963      26.55591706      34.34842614 
Ag      19.41707435      28.59271322      32.13926363 
S      20.34309398      16.10588611      33.44070936 
S      28.46899225      32.51433041      19.59254039 
S      24.22601495      22.99805557      35.76715913 
S      24.17802422      18.10815089      35.54457368 
S      12.48015789      18.08234520      24.23210285 
S      32.28351020      17.41382050      29.46384619 
S      31.46302365      14.85164328      21.42198423 
S      29.51163101      18.71809006      16.49807294 
S      28.28484797      21.92478846      33.21723679 
S      22.72881221      27.67196488      34.87604746 
S      13.52200619      30.09929193      25.02497417 
S      16.26931479      18.24726698      17.14455466 
S      32.68555426      23.17095554      19.79029690 
S      26.99353475      30.74034385      33.38551835 
S      23.03443271      32.15233657      32.85933908 
S      17.26460813      31.57392278      17.63387265 
S      11.46757281      22.31299070      23.00610833 
S      25.05897903      13.16716165      26.91406558 
S      33.81103959      29.15002802      27.59923425 
S      28.63044507      26.51359603      33.29720353 
S      24.01257288      24.43355637      11.94249618 
S      27.62555044      25.51472535      13.23101911 
S      19.30851524      33.27183052      30.40113450 
S      28.87449508      17.56291150      32.70335128 
S      21.25505508      34.17474164      24.59509700 
S      30.59601101      32.52825994      28.03554607 
S      28.94127883      29.15360761      16.30024675 
S      33.50928065      17.04879754      23.97148071 
S      34.88694321      21.60187376      23.33138058 
S      19.28524181      13.57172533      25.57065098 
S      20.89917710      33.79504375      19.46825623 
S      12.64311919      19.39849252      19.61286791 
S      18.66215034      30.34515025      33.71442511 
S      31.84885307      31.62953907      23.84865188 
S      35.19792715      27.64312414      23.25029265 
S      31.21948152      30.34072539      31.38407566 
S      23.30977952      13.21189117      23.30788584 
S      32.16709777      19.16997220      19.74642046 
S      28.54115654      14.45605810      17.71438878 
S      15.58595487      30.51333522      29.30703093 
S      31.76095271      21.95126418      31.00081262 
S      20.60199464      26.79196644      14.06214852 
S      17.24186024      27.01462868      16.29255554 
S      27.48785574      12.85127099      22.06852729 
S      16.94971751      33.63122795      26.36917964 
S      15.24880552      21.75157224      31.02939327 
S      21.04481467      16.63417452      15.79369586 
S      24.74358720      28.89523336      13.44842569 
S      20.05928889      22.33369420      14.20311914 
S      21.30365624      31.40762446      15.15435099 
S      22.76608852      33.66954194      28.25191097 
S      13.38976982      17.64751865      28.77249793 
S      24.36820471      33.60689169      22.08427514 
S      27.56498299      20.82018800      12.82639651 
S      16.38592605      22.99110145      16.66512518 
S      25.98749756      16.51251038      14.61946719 
S      17.29878745      14.33155798      30.07533978 
S      28.47526613      14.04673736      29.86885585 
S      26.82095722      33.85974137      30.50395269 
S      31.91174396      28.82623445      20.00177349 
S      24.77761626      14.76876965      32.66299305 
S      14.41595128      29.37657801      19.37222340 
S      13.35332819      25.96741552      27.40176665 
S      34.73254454      20.37664795      27.62908299 
S      30.32625359      23.15823033      16.06699398 
S      18.43447996      25.56873803      34.46381600 
S      35.48987509      24.91205982      26.68109237 
S      20.02688605      20.86153199      34.82725250 
S      32.24121873      25.94693712      30.54953831 
S      23.66932197      19.75615535      12.75770616 
S      17.14359189      33.42317679      22.28964612 
S      15.62273557      26.14125275      30.58872432 
S      12.00032903      26.98254697      23.18640201 
S      24.37798237      13.10387214      17.58381886 
S      13.16380499      24.83133902      19.23843843 
S      21.81944532      13.77462286      29.40695465 
S      16.54278290      17.68764745      32.26129007 
S      15.88280666      15.80193977      21.26145219 
S      14.96139485      15.03546153      25.98061885 
S      25.31829345      32.77496165      16.23928665 
S      29.84367796      13.62423008      26.07195254 
S      20.21889712      13.62480693      19.44162175 
S      26.97726139      33.53870110      25.63645969 
S      12.90406806      21.89465551      27.02080582 
C      20.88236773      14.34693428      33.39872336 
C      30.21087226      32.97903669      19.94108069 
C      23.72354921      24.36877675      36.88262882 
C      23.60399165      19.02914745      37.02792282 
C      11.04845247      19.00707424      24.92038682 
C      32.58501291      15.61143576      29.26973109 
C      31.58729710      13.03198464      21.65566022 
C      31.13947451      19.24849264      15.83040901 
C      28.19376053      22.93866600      34.74123925 
C      22.37593102      29.02825419      36.06794231 
C      13.42407625      31.88146398      24.58268783 
C      16.80495661      16.86857779      16.04763617 
C      33.16561523      24.14065932      18.31581773 
C      26.90531828      32.48467849      33.94817825 
C      22.62293440      33.87330011      32.36816215 
C      17.22402300      33.40933426      17.51850090 
C      10.61072217      22.21702134      21.38256880 
C      26.51470752      12.17594931      27.41585483 
C      34.91352541      28.19458352      28.71740375 
C      28.21656751      27.57947796      34.73209978 
C      22.77458582      24.34507214      10.57975254 
C      27.18568744      26.16092646      11.57193505 
C      17.82205036      33.20296876      31.48197971 
C      29.65810029      18.45069764      34.10712271 
C      19.71169080      35.13393095      24.35566215 
C      32.06520876      32.97148923      29.03973380 
C      28.88266796      30.12284116      14.74128347 
C      34.45842863      16.61632896      25.48401491 
C      35.55581739      21.51029815      21.62161633 
C      17.71971438      12.79023808      25.01628245 
C      21.77583756      35.27639319      20.09961071 
C      12.62520845      17.83581223      18.64606713 
C      18.65753182      29.61718499      35.40100118 
C      33.63095069      31.81280894      24.24846601 
C      35.34623185      29.15410723      22.21411535 
C      32.23200868      29.92418454      32.86369260 
C      21.89691355      12.09043881      22.94736104 
C      33.33241025      17.84082532      20.22744281 
C      28.05869251      12.71844520      18.08044614 
C      14.31864728      29.78340259      30.42198624 
C      33.14275328      20.75161884      30.94950761 
C      19.34120904      25.97587029      13.00591919 
C      16.03049917      28.37608935      16.10058620 
C      26.48653731      11.35202680      22.41458569 
C      15.31776665      33.96266742      27.14745230 
C      14.96429228      20.99639970      32.67732397 
C      21.65949699      15.44763871      14.53300365 
C      23.21573122      29.28709373      12.50649688 
C      20.18962289      21.01872753      12.92449278 
C      21.66718700      33.18994130      15.43159594 
C      23.14587365      35.32761571      27.55643318 
C      11.90732026      18.21617266      29.70386933 
C      25.91727442      34.58831415      22.16227041 
C      29.25371213      20.58364744      12.13641742 
C      16.40825827      21.81092974      15.26091018 
C      27.74175871      16.05656968      14.31740057 
C      17.36869818      12.50022528      29.88192177 
C      29.69812426      13.76938372      31.21186001 
C      26.70191877      35.59852002      29.91466432 
C      32.36628706      30.04383552      18.69715912 
C      25.72262700      14.95330381      34.23015883 
C      13.03968266      30.22717363      20.23950207 
C      12.07571225      27.17396990      26.88268156 
C      36.16075023      19.69914789      26.69554806 
C      30.77912072      24.12883264      14.57656277 
C      18.47329643      24.36500353      35.85201223 
C      36.52719741      24.74901374      25.17279106 
C      19.88655182      19.67003104      36.22105842 
C      32.36626223      25.65707959      32.35616857 
C      24.79155214      18.83499239      11.63935768 
C      15.70768537      33.47747376      21.14661956 
C      15.18529877      25.38734030      32.20068817 
C      10.84318518      27.43068762      21.83311276 
C      22.87413073      12.42256617      16.77398525 
C      12.98751235      24.46012622      17.45057156 
C      21.47987607      12.18775300      28.55221769 
C      16.30231030      16.09758114      33.14420659 
C      14.12028866      15.28727724      21.19743609 
C      13.18185184      14.84566007      26.39220842 
C      27.01962565      33.40046685      15.94871362 
C      31.59364592      13.40546352      25.55323670 
C      18.45491341      13.20322512      19.13206251 
C      28.53500788      34.50860108      25.70110389 
C      12.12295054      22.46462808      28.57963816 
H      21.91277417      14.24456501      33.04118814 
H      20.79654466      13.93715724      34.41136806 
H      20.21020929      13.80567567      32.72170345 
H      30.67116738      33.34008058      19.01462033 
H      30.18892282      33.78420348      20.68515708 
H      30.77714503      32.13295270      20.34574901 
H      24.62857826      24.91754789      37.16882372 
H      23.02950657      25.05789507      36.38955547 
H      23.25841017      23.93614500      37.77565668 
H      23.17941487      18.32118666      37.74811782 
H      24.47881910      19.52297938      37.46653979 
H      22.86223928      19.79539961      36.77331468 
H      11.08005627      18.91178644      26.01259301 
H      11.08055036      20.06819632      24.65088317 
H      10.12713161      18.55316271      24.53832809 
H      33.37622621      15.49872844      28.51850195 
H      32.92767615      15.19887406      30.22499978 
H      31.68449817      15.08575537      28.93342214 
H      30.60805984      12.58345571      21.85586937 
H      32.02280513      12.59129040      20.75186108 
H      32.25517905      12.84580796      22.50501837 
H      31.13439650      20.31755336      15.58629432 
H      31.89925470      19.06016950      16.59924046 
H      31.36283716      18.65685971      14.93513390 
H      27.92812005      22.28085509      35.57652681 
H      29.18183048      23.38470848      34.90420625 
H      27.44281544      23.73035906      34.63347993 
H      21.61493520      29.72018150      35.68869182 
H      22.04601517      28.59974539      37.02090740 
H      23.31134069      29.58018222      36.21885899 
H      12.83818820      32.40923458      25.34352278 
H      14.41785467      32.33605737      24.49928598 
H      12.91084444      31.95613364      23.61644026 
H      16.87501888      17.26154254      15.02647016 
H      17.78230662      16.47137579      16.34305431 
H      16.05209491      16.07334376      16.08081116 
H      32.38330573      24.86134528      18.03949578 
H      34.09939096      24.66880968      18.54065883 
H      33.31550864      23.43966652      17.48587784 
H      27.15071531      33.18182346      33.14046058 
H      25.87374369      32.65745254      34.27890209 
H      27.59520029      32.61536640      34.78910938 
H      21.81890047      33.90220324      31.62470526 
H      22.31946226      34.41820187      33.26962843 
H      23.52844478      34.32798468      31.94752646 
H      16.33079072      33.76794892      18.04372026 
H      18.11343491      33.86404796      17.96768748 
H      17.15603978      33.69069246      16.46149701 
H      11.15359398      22.77941450      20.61590140 
H      10.55590162      21.15977195      21.09336840 
H       9.60155913      22.62589865      21.50725837 
H      27.42064049      12.78173815      27.50595962 
H      26.29962337      11.70442353      28.38163970 
H      26.66834420      11.40535514      26.65039284 
H      35.85120281      28.75646048      28.80400433 
H      34.43090984      28.11386140      29.69837014 
H      35.11866917      27.19203292      28.32704369 
H      28.08563378      26.93358255      35.60813446 
H      29.04940643      28.27239369      34.90120646 
H      27.30580472      28.15955312      34.55744141 
H      22.59926179      25.35945371      10.20283882 
H      23.18652881      23.72453904       9.77555081 
H      21.82878090      23.91712803      10.92641477 
H      26.26884408      25.68934798      11.20224519 
H      27.02619628      27.24102319      11.67505804 
H      28.02134960      25.96687540      10.89050010 
H      18.15859095      33.00599612      32.50697698 
H      17.31465923      34.17283054      31.43509805 
H      17.13877924      32.40798764      31.16288828 
H      30.54345846      17.89663708      34.43676233 
H      29.92694547      19.47536879      33.82967274 
H      28.91848341      18.47928195      34.91670673 
H      18.81863166      34.50508991      24.40959586 
H      19.65675622      35.89241195      25.14548915 
H      19.74965724      35.62377500      23.37528130 
H      32.02209316      32.51108879      30.03218040 
H      32.94474046      32.59847127      28.50097377 
H      32.11461006      34.06276695      29.12214268 
H      29.67259123      30.88200397      14.75239106 
H      29.06438820      29.41836253      13.92036598 
H      27.90386679      30.59774043      14.59618506 
H      34.24288908      15.56859148      25.72621322 
H      35.52948095      16.72371464      25.27788240 
H      34.17691819      17.25106518      26.33134117 
H      34.78448966      21.20823828      20.90518884 
H      35.92471825      22.50553957      21.34705314 
H      36.38597152      20.79515170      21.60610458 
H      17.31283304      12.20399709      25.84906586 
H      16.97901366      13.53533315      24.71130973 
H      17.94748900      12.12476767      24.17547527 
H      22.69934790      35.37466372      19.51643507 
H      21.13767603      36.15257989      19.94074940 
H      22.03073002      35.16500408      21.15887055 
H      12.92352044      18.07834453      17.61973898 
H      13.32639207      17.09787273      19.04866001 
H      11.60811061      17.42842454      18.65478106 
H      18.79678750      30.41529608      36.13836184 
H      17.68085460      29.14219817      35.54943386 
H      19.43681118      28.85523621      35.52128947 
H      34.10372891      30.85024719      24.48636193 
H      34.14706785      32.27165949      23.39741090 
H      33.71490458      32.46989421      25.12211015 
H      35.54414481      28.82943356      21.18618237 
H      34.42704224      29.75057979      22.22550687 
H      36.18621072      29.75481437      22.57985439 
H      31.86635769      29.01653776      33.35342632 
H      33.26436304      29.77053744      32.52764427 
H      32.19635301      30.76576192      33.56454450 
H      22.08075867      11.15254428      23.48498250 
H      20.96004547      12.53661342      23.30120177 
H      21.83665009      11.89952290      21.87068824 
H      33.52011769      17.23281386      19.33380497 
H      34.27034545      18.29732412      20.56584885 
H      32.93107493      17.19796942      21.01605424 
H      27.21798343      12.44355428      17.43274026 
H      28.92063207      12.07644820      17.86613306 
H      27.76394793      12.59897776      19.12881560 
H      13.35834705      30.28175559      30.25075812 
H      14.22057886      28.70358235      30.26246008 
H      14.64676344      29.96220510      31.45302060 
H      33.08380550      20.13939106      31.85794015 
H      33.09038561      20.09939778      30.07319563 
H      34.08948606      21.30356195      30.93421101 
H      19.45112898      24.88504610      13.02279349 
H      18.35404179      26.24518534      13.40238701 
H      19.44360027      26.34939844      11.98062875 
H      16.00587018      29.03713231      16.97153350 
H      16.30311848      28.95860919      15.21296884 
H      15.04202794      27.92190531      15.95961616 
H      27.15198517      10.53473205      22.71190542 
H      25.73927449      11.54860443      23.19081304 
H      25.97292577      11.09142030      21.48099308 
H      14.58699334      34.08438144      26.33950062 
H      15.01309879      33.14051172      27.80487967 
H      15.38504919      34.89527438      27.71846709 
H      14.94747712      21.79665817      33.42616737 
H      13.99014383      20.49301058      32.65468419 
H      15.73756527      20.26328755      32.92639447 
H      21.76114963      15.98746890      13.58408081 
H      22.63655834      15.03017914      14.80963756 
H      20.92987565      14.63861596      14.41377916 
H      22.49165882      29.83153015      13.12301634 
H      23.51096800      29.90050670      11.64704761 
H      22.77048518      28.34573491      12.16275596 
H      19.18160423      20.63235630      12.73291157 
H      20.59400735      21.45695764      12.00456806 
H      20.84311336      20.20177142      13.24513042 
H      22.67164895      33.40754543      15.05037721 
H      20.92542951      33.77689754      14.87784044 
H      21.61961621      33.44907750      16.49461876 
H      22.84721012      36.08255947      28.29282633 
H      24.21412617      35.41957077      27.33641239 
H      22.57140292      35.45509459      26.62948170 
H      11.65431674      17.46627102      30.46178604 
H      12.08666877      19.18378792      30.18237687 
H      11.08062388      18.30720243      28.98904023 
H      26.06063998      35.09387382      21.20067683 
H      25.80642870      35.32872251      22.96320730 
H      26.78120057      33.94879288      22.37875279 
H      30.01930368      20.97141091      12.81578310 
H      29.40422199      19.50655060      11.99395681 
H      29.32125843      21.09297022      11.16861865 
H      15.59563328      21.08712831      15.38608149 
H      16.26271109      22.38590296      14.33885054 
H      17.36780130      21.28274139      15.20701098 
H      28.22580579      15.68551970      15.22730850 
H      27.75975345      15.28050194      13.54369013 
H      28.27102622      16.94928361      13.96351825 
H      16.34543800      12.10744959      29.88458267 
H      17.86937759      12.21747551      28.95053395 
H      17.92019128      12.08367354      30.73282396 
H      30.66206034      13.54968897      30.73744384 
H      29.79572109      14.65169486      31.85359980 
H      29.38048441      12.90398803      31.80392948 
H      26.61925981      35.64208059      28.82407167 
H      25.80909298      36.04557135      30.36780017 
H      27.59210009      36.14694176      30.24244695 
H      33.19982695      29.62275351      18.12308586 
H      31.51027538      30.22587160      18.03570126 
H      32.68330866      30.97980626      19.16863530 
H      26.50601126      15.71210387      34.13449025 
H      25.01927694      15.25418795      35.01590364 
H      26.17034921      13.98482586      34.47904793 
H      12.90146333      29.82849964      21.24989892 
H      13.30151570      31.29074235      20.29446713 
H      12.12315691      30.10427661      19.65156430 
H      12.31910711      27.66000856      25.93413041 
H      11.12594187      26.63693852      26.77517772 
H      11.97964435      27.93484951      27.66655443 
H      36.10452042      19.96163079      25.63304419 
H      37.07481950      20.11339282      27.13620048 
H      36.15608570      18.61037412      26.81725108 
H      30.16607452      25.02959140      14.47714443 
H      31.83579392      24.40550334      14.67761490 
H      30.64303065      23.50778439      13.68318970 
H      19.29438742      23.64806305      35.74335140 
H      18.57738737      24.92057190      36.79086605 
H      17.52196231      23.81999301      35.85047507 
H      36.68767406      25.75295629      24.76244939 
H      37.48596550      24.30655997      25.46495491 
H      36.03853762      24.11308338      24.42635727 
H      19.85425353      20.22095119      37.16766618 
H      18.94876267      19.11810023      36.08639363 
H      20.71768068      18.95552783      36.23540548 
H      32.44995838      24.57438245      32.51563445 
H      33.27125663      26.15863130      32.71944345 
H      31.48493101      26.03945335      32.88374989 
H      25.75489075      19.34601731      11.54136000 
H      24.94481008      17.83241810      12.05631584 
H      24.29790889      18.76736081      10.66251583 
H      14.80739336      33.29721756      21.74625490 
H      15.65854334      34.47724380      20.70024596 
H      15.79147190      32.71614096      20.36257676 
H      15.34905262      26.12152625      32.99692863 
H      14.12562455      25.10937096      32.15285984 
H      15.79161650      24.49359228      32.38726521 
H      11.15290521      26.98869809      20.87977668 
H       9.84063339      27.08278161      22.10699835 
H      10.84069573      28.52420596      21.75316075 
H      22.28889820      11.89932734      17.53864358 
H      22.25250061      13.20893481      16.33465634 
H      23.19018829      11.71977842      15.99491819 
H      12.73274243      23.39626951      17.36994933 
H      12.17427023      25.07233352      17.04577553 
H      13.92209639      24.64558373      16.91104365 
H      22.40796753      11.86690579      28.06206489 
H      21.18142198      11.44947909      29.30589734 
H      20.69068255      12.29999937      27.79987178 
H      16.33421449      15.25298652      32.44762638 
H      17.12189461      16.00898002      33.86777358 
H      15.34001896      16.12990842      33.66669128 
H      13.44151216      16.14828228      21.25299647 
H      13.94246071      14.73334520      20.26866950 
H      13.93212155      14.63048519      22.05504401 
H      12.96861061      13.77599063      26.49863767 
H      12.93076157      15.37440609      27.31744893 
H      12.59763198      15.26624440      25.56523132 
H      27.76258569      32.59715810      16.00555600 
H      27.05008399      33.87369009      14.96058575 
H      27.24138725      34.14212088      16.72483610 
H      31.87921678      14.12384131      24.77627286 
H      32.21293116      13.56389815      26.44452399 
H      31.73292378      12.38099077      25.19111098 
H      18.35571742      12.80220325      18.11738222 
H      18.16105607      12.43524115      19.85735914 
H      17.80440625      14.07609908      19.25535997 
H      28.60179512      35.10561662      24.78419693 
H      28.48933516      35.17108268      26.57387171 
H      29.41013707      33.85777419      25.79188622 
H      12.09121268      23.56186736      28.56151348 
H      11.10513995      22.05819510      28.61527167 
H      12.69582125      22.12983894      29.45177799 
