699
Properties=species:S:1:pos:R:3 i=80 optimized=T E=-10866.9146570356 pbc="F F F" jobid=279_84-Ag-10_0-000008-PBE
Au      33.20735697      25.49506936      26.08082712 
Au      32.06702452      29.44223256      21.52643839 
Au      34.63358825      28.11979112      25.39864223 
Au      29.93364341      14.95831269      19.69014136 
Au      34.13752479      19.59534828      23.71019091 
Au      27.46249990      23.15984882      12.88798427 
Au      18.06425812      33.27327331      28.26444882 
Au      28.58474031      30.69254974      18.00033303 
Ag      24.93882115      21.24592099      23.23387681 
Au      26.32069227      23.27921410      24.88938514 
Ag      28.24151957      25.13790091      23.61036016 
Au      23.82583333      21.65680278      29.05603242 
Au      23.38209557      27.92763857      27.00657803 
Ag      26.92948348      23.08947675      21.97282978 
Au      22.38047863      19.54172616      27.36536437 
Au      27.24303624      21.18306277      26.70967293 
Au      22.03581922      21.49470580      22.71242104 
Au      20.99705744      23.55880919      20.82388828 
Au      27.68803990      25.36789753      26.54753155 
Ag      19.97332573      24.03490402      26.71703836 
Au      25.48766583      21.09017012      20.32896117 
Au      24.37104373      25.79909087      28.82441351 
Ag      23.88672420      27.74000873      24.06023879 
Au      26.24787199      27.67913459      27.59581559 
Au      20.90108534      21.91210971      28.41819409 
Au      22.88512244      23.75182242      27.21260763 
Au      21.47771790      21.68247693      25.60202999 
Ag      19.51765282      19.78167772      26.90440560 
Au      25.85079457      19.12721578      25.08067815 
Au      25.31316343      23.67654786      30.80282735 
Au      22.99114373      25.34816806      19.54773305 
Au      21.00556591      27.96511372      23.56764793 
Au      26.71034390      27.45052701      24.67882917 
Au      22.58781136      21.37681887      19.78943166 
Au      21.95499692      25.90340791      25.38149532 
Au      27.24546217      25.56172102      29.47476259 
Au      20.13425207      19.61464726      24.05625061 
Au      25.91406434      25.10079477      20.16115680 
Au      23.50876012      19.20681485      21.61111095 
Au      22.38032556      23.94960753      30.08595344 
Au      21.04275572      17.41130767      25.77650578 
Au      21.57212097      27.64703254      20.59002567 
Au      24.42799447      27.45336871      21.21600624 
Au      24.50741019      23.12940264      18.45261092 
Au      28.68510200      23.21969512      28.46030021 
Au      18.60024201      21.92920085      25.18353099 
Au      26.72860516      21.33757758      29.66138601 
Ag      22.43131235      30.06814114      25.13842889 
Au      27.26839531      27.18999903      21.79325190 
Au      21.81152204      19.73612474      30.20872207 
Au      18.51790430      26.38057437      27.76355017 
Au      23.21669496      21.81744406      31.97454949 
Ag      21.55515665      23.41335403      17.86701026 
Au      17.09272823      24.28777182      26.25048471 
Au      27.47791436      22.81748587      19.00762329 
Au      23.89960290      17.13218698      26.27903882 
Au      23.25191706      17.41314211      29.23521099 
Au      25.23567960      29.82520367      25.71028666 
Ag      21.61785306      17.23966380      22.84962665 
Au      28.81929597      18.79743341      25.66736566 
Au      22.89885808      29.80813965      22.22783505 
Au      25.38187417      25.36550961      23.05185811 
Au      20.04652794      25.63800547      18.93276772 
Ag      29.61676772      27.24500871      25.32859297 
Au      19.39504583      24.27337027      29.60702949 
Ag      17.96701426      22.17550925      28.04237261 
Au      20.04350894      28.41510862      29.43169415 
Au      23.83975877      25.98064468      31.69990006 
Au      20.96573324      26.33262589      31.22292012 
Au      26.38024941      19.00385823      22.10990407 
Au      24.64996004      19.52913844      30.94688456 
Au      20.39322708      17.56870208      28.70208653 
Au      28.89562799      24.85465610      20.69386437 
Au      19.55840456      30.26346554      24.63515437 
Au      25.77765606      29.63716393      22.76866757 
Au      24.94734918      27.15755739      18.24323519 
Au      28.43778093      20.82194018      20.84680922 
Au      29.17773640      27.51072133      28.28205748 
Au      30.09117597      20.95549781      27.28365455 
Au      18.10771826      23.86052790      20.32858799 
Au      17.72888030      19.64541608      20.63126222 
Ag      25.75426408      27.84488850      30.54077653 
Au      28.23012040      23.50143037      31.30270811 
Au      21.93402130      30.28709224      28.11906835 
Au      21.82028721      24.17416368      32.98159624 
Au      18.68484065      27.95633328      20.08678404 
Au      16.20060224      21.88898300      21.63232240 
Au      30.54962549      25.18770835      27.13815712 
Au      23.42817647      23.54405921      24.32726945 
Au      20.05955569      30.03327599      21.70758059 
Au      16.56775873      20.05745054      26.48723260 
Au      26.74753047      17.03003393      26.90437120 
Au      30.06004952      25.31197110      30.02587229 
Au      17.63179343      28.46692193      25.93368844 
Au      16.20477847      26.33554790      24.32406026 
Ag      28.59453541      29.24853109      23.34196352 
Ag      27.86571297      26.93852443      18.95830529 
Au      24.11587034      19.10614504      18.61992717 
Au      27.36520312      16.85388747      23.96713490 
Au      26.93383907      18.78039111      19.18186169 
Au      26.03357679      21.47835470      32.71146301 
Au      12.53955568      18.75172548      21.91684191 
Au      23.01325036      21.14102868      16.84551819 
Au      26.33823401      29.24075825      19.78216128 
Au      21.08268795      19.87144393      32.88057001 
Au      26.10708808      17.23805843      29.80474943 
Au      29.26882669      18.70686218      22.71469313 
Au      27.69317623      29.72684936      29.32347972 
Au      15.15516868      22.50922591      27.44310760 
Au      26.06955962      20.87228672      17.24151778 
Au      24.60557107      23.98132558      33.57975060 
Au      23.54709936      25.16852576      16.46158527 
Au      17.60294980      17.95873660      28.18203861 
Ag      19.07228005      30.54086582      27.54311875 
Au      23.51559661      29.52033756      19.25797030 
Au      22.45630481      25.63064301      22.47297845 
Au      16.18957780      20.04271526      29.42591601 
Au      27.49067930      19.23526983      31.41339938 
Au      29.16730074      28.99177615      20.51852966 
Au      16.43862846      24.49959580      29.03022571 
Au      32.01923664      22.86610817      26.04553223 
Au      16.54833468      21.62427722      18.74363530 
Au      24.86897569      31.66855122      20.71317638 
Au      21.96926343      31.75594640      20.32144514 
Au      20.61097013      25.47100116      16.09109618 
Au      24.32426505      31.93110602      23.96591369 
Au      20.62642654      29.70820742      18.74537572 
Ag      23.08814562      15.00266789      21.57028314 
Ag      30.38839676      22.53897860      19.58202391 
Au      25.03152420      22.90762525      15.45580588 
Au      18.64463003      23.74185656      17.30780652 
Au      28.91570892      20.58492953      17.97099493 
Au      17.59318652      22.43926166      31.01256906 
Au      17.22882045      28.70033317      28.82812651 
Au      27.85430121      16.68625830      21.02415134 
Au      15.59353373      26.93471987      27.12807136 
Au      18.81499156      15.64796418      27.16326046 
Au      19.56670747      15.39125812      23.89817469 
Au      18.12316549      26.69789530      30.82117985 
Au      20.10789193      15.39009896      21.15423363 
Au      27.28881618      31.62357304      24.21503562 
Au      24.93610179      15.18490827      28.31699387 
Au      23.97546418      23.32882188      21.43383160 
Au      20.06565075      21.23402615      16.37280629 
Au      27.81150999      22.83225720      15.85817134 
Au      31.39897234      20.42914853      21.68503588 
Au      26.96499113      31.82500166      27.60409903 
Au      25.77437827      14.87669177      25.17174076 
Au      28.74174063      16.32393585      28.88345799 
Au      25.96625499      14.87930083      22.25877232 
Au      32.59241110      22.62715692      23.22384468 
Au      25.69828039      30.68122920      31.17087658 
Ag      22.87412163      30.84283204      30.84683754 
Au      24.20879011      16.94847495      31.95108196 
Au      31.34128743      17.85812594      24.71172186 
Au      16.98531136      26.10958903      18.60213961 
Au      31.67017531      22.93480261      28.78847286 
Au      29.39047295      16.02724806      25.97325537 
Au      15.52976829      29.21666972      23.97858981 
Au      16.06415450      29.01164199      21.05316450 
Au      17.00076172      31.20470094      25.62109313 
Au      29.50231940      24.83846701      17.88921941 
Au      30.77769050      18.06677344      27.61615684 
Ag      18.54805223      17.41774544      30.84323342 
Au      23.99256961      19.82987844      33.76747581 
Au      18.13045572      30.77449439      19.80001263 
Au      17.46439880      31.07308967      22.68052507 
Au      14.21451982      27.07586860      22.35549422 
Au      32.64035933      20.00675326      26.30969058 
Au      24.82905757      25.59564022      25.94373431 
Au      32.87716649      26.86670832      23.02812263 
Au      24.81006064      20.06152691      14.84245048 
Au      20.02823223      31.08842794      30.18145609 
Au      31.81013959      27.80657734      27.16717028 
Au      22.65042703      28.40037940      32.60108380 
Au      29.84797615      15.89005714      23.03552704 
Au      22.40832184      17.10111055      34.48580443 
Ag      13.92435198      19.42806760      27.71746581 
Au      24.09781584      27.85405523      15.54805233 
Au      15.12289977      17.52607525      30.69498071 
Au      25.68204788      25.62860492      14.63365938 
Au      28.83204054      30.59356037      32.46152627 
Au      22.57984907      30.08564416      16.65190262 
Au      22.24451994      22.00296001      35.26435684 
Au      31.51296281      28.32838239      31.30646954 
Au      19.28257641      13.89636272      29.53173184 
Au      22.10795517      25.24314155      12.82342565 
Au      16.02607299      14.68955284      28.07444364 
Au      25.70924855      33.78560759      29.43542182 
Au      26.63680787      14.55792047      31.06752539 
Au      28.48892429      13.34620491      24.00953647 
Au      16.16483178      16.93203131      19.05068513 
Au      15.95864249      17.80218400      22.32098864 
Au      20.74743431      15.45938804      17.53369576 
Au      11.82647553      24.61536270      22.99437068 
Au      14.59810497      30.14291253      27.15366466 
Au      24.36147766      21.40959941      26.13181909 
Au      15.01340077      19.68382075      20.10483522 
Au      25.48703806      31.20932889      17.99365305 
Ag      27.77272523      20.05746993      14.96989881 
Au      30.15794520      27.02510803      22.43943631 
Au      31.11530231      24.95998666      24.21490403 
Au      31.84555171      24.76445009      21.38638654 
Au      20.52306995      23.80131231      23.81257423 
Au      25.25867018      14.78544059      16.06049232 
Au      30.68605406      29.90304857      25.12655099 
Au      25.79308195      23.45024357      27.86673676 
Au      27.01024825      27.65515677      16.34681098 
Ag      20.77918187      31.28408257      33.12128019 
Au      17.66818121      23.97356386      23.31470246 
Au      22.99365379      19.30349967      24.47494120 
Au      27.78606788      20.97924193      23.79761804 
Au      19.59719537      25.89397388      21.94104032 
Au      24.92805804      30.96574793      14.81410667 
Au      25.19323931      19.31778781      27.97463106 
Au      19.05549330      26.10405919      24.84854861 
Au      20.54243608      28.20148992      26.49430973 
Au      21.41671384      26.02778246      28.28896689 
Au      29.15065362      23.11433924      25.48609776 
Au      19.15269484      21.73447271      22.18048198 
Au      24.50701798      17.03138217      23.39627924 
Au      22.96580729      28.17668153      29.88062331 
Au      20.65176443      19.46414057      21.08620250 
Au      20.39353998      22.15028751      31.31312474 
Au      24.83139904      30.08308810      28.65206485 
Au      18.02692979      28.29112718      22.99049122 
Au      28.13535029      19.05325507      28.54594193 
Au      19.01151723      20.08439110      29.79430878 
Au      29.78626408      22.79721680      22.56820650 
Au      19.54928523      21.59174900      19.18629753 
Ag      18.20555234      17.67906647      25.23893580 
Au      15.71109612      22.13485604      24.57506116 
Au      16.70347468      26.14251106      21.42220452 
Au      26.52474371      24.94137380      17.29956967 
Au      28.07810233      29.53210535      26.23198246 
Au      17.24495966      19.86577920      23.61846229 
Au      18.80286534      17.60764094      22.37031619 
Au      30.69462720      20.72711077      24.40498741 
Au      22.10360012      27.41896364      17.65449491 
Au      21.12207950      19.35421772      18.23520579 
Au      22.15367589      17.21040020      19.83817809 
Au      21.95849047      15.36175336      27.55400348 
Au      19.02089279      24.38413662      32.49183294 
Ag      26.57460658      25.71872980      32.43136722 
Au      14.80315861      24.22392847      22.71845288 
Au      29.64987258      20.77279929      30.19159379 
Au      23.90127238      32.09747000      26.79142326 
Au      22.49599968      15.11813756      24.70864251 
Au      24.97093041      16.91662446      20.42779301 
Au      28.58335382      27.80022946      31.17528229 
Ag      19.25188115      17.44202497      19.41822737 
Au      27.73301922      31.30240877      21.45432477 
Au      15.30929042      24.05577645      19.87378606 
Au      21.32386496      17.23268409      31.44851393 
Ag      21.30822037      32.12930062      23.18474791 
Au      14.15412223      24.53924457      25.39398500 
Au      22.29526664      23.08278620      14.84034838 
Au      30.70660464      26.78488184      19.49820425 
Au      18.29105218      19.45678897      17.69157991 
Au      22.85347988      18.26924470      16.24118376 
Au      15.52528272      17.44073724      26.26047637 
Au      30.27336995      30.10427270      28.00206720 
Au      29.77866569      18.28990636      19.83810949 
Au      13.59911963      21.57495380      22.71609250 
Au      30.45485876      17.61324506      31.03808626 
Au      26.76767708      15.98235782      18.44522405 
Au      20.94626192      32.26608026      26.30712882 
Ag      19.18888899      27.88732777      17.15764467 
Au      25.92558103      18.02831293      16.54830067 
Au      14.52912508      19.41741821      24.44203210 
Au      18.97049306      33.49598119      20.80756461 
Au      23.77056490      21.98148868      12.30464912 
Au      34.66000406      22.57354503      27.48349487 
Au      29.30176003      32.96935839      29.42643134 
Au      19.24085407      31.20195162      16.53084761 
Au      23.55621127      15.06867154      18.76627958 
Au      13.76922406      27.10564541      19.36100808 
Au      20.63492314      26.66400663      34.65792096 
Ag      19.68653140      28.60250372      32.30875265 
S      20.59512942      16.00038947      33.44103013 
S      28.62614827      32.53125475      19.51611481 
S      24.24449825      23.12710157      35.85085394 
S      24.25075991      18.16345794      35.51780696 
S      12.42956995      18.13302725      24.18566585 
S      32.24638245      17.53388842      29.50585578 
S      31.46582118      14.91936343      21.48638334 
S      29.74817821      19.11987278      16.22498573 
S      28.31974496      22.12239175      33.32561944 
S      22.65608473      27.86345630      34.97202579 
S      13.47957018      29.97595602      25.08078867 
S      16.47995104      17.98333873      16.95904269 
S      32.80130949      23.25741721      19.73306322 
S      26.66027099      30.74403126      33.37346089 
S      22.87109640      32.42382539      32.77221231 
S      17.17660237      31.44409205      17.64771990 
S      11.29191079      22.32603169      22.81378068 
S      25.04044390      13.24801704      26.83667450 
S      33.90379828      29.09643377      27.40918034 
S      28.68255200      26.62038063      33.35595275 
S      23.78479271      24.20760149      11.52277671 
S      27.45852601      25.51970359      12.98753424 
S      19.07969410      33.31457146      30.38947002 
S      28.78863850      17.61038618      32.71644084 
S      21.25126704      34.10092270      24.73992930 
S      31.12933062      32.37512142      28.06551758 
S      28.89916023      29.15712956      16.20133734 
S      33.56260508      17.31135507      23.82931241 
S      34.89376515      21.82448105      23.52108931 
S      19.18505636      13.72987870      25.61898298 
S      20.82200518      33.70148954      19.36222355 
S      12.64418170      19.38269035      19.64579962 
S      18.60907192      30.36436064      33.67043273 
S      31.81984063      31.02283378      23.29050684 
S      35.26106069      27.20302089      23.31782635 
S      31.11690853      30.59178860      31.86139360 
S      23.03146872      13.19950672      23.30097317 
S      32.02732934      19.22615378      19.66141059 
S      28.65092035      14.59467268      17.74759493 
S      15.54289078      30.41751678      29.30371683 
S      31.61470986      21.96225458      31.02051383 
S      20.37830303      26.45671624      13.85561800 
S      17.01117619      26.95805569      16.32853820 
S      27.35386020      12.86888831      21.99040604 
S      16.82269076      33.54831525      26.28363457 
S      15.29988067      21.61219390      31.11868001 
S      21.14973180      16.69582960      15.53870109 
S      24.64882040      29.05770146      13.46765659 
S      20.05924289      22.21394507      14.15847568 
S      21.13082161      31.31446712      15.12772378 
S      23.74412175      34.11727991      28.18053107 
S      13.33863891      17.46072351      29.15797399 
S      24.34715417      33.58564372      22.14805839 
S      27.69713235      20.83889390      12.57916719 
S      16.38562176      22.95440685      16.69997867 
S      26.07392741      16.46447218      14.63176259 
S      17.00144257      14.05399793      30.12754826 
S      28.56845277      14.06856999      29.80011132 
S      27.61763080      33.82860006      30.83457131 
S      32.69588549      28.23162679      19.57252307 
S      24.89111452      14.72295551      32.64977391 
S      14.29582403      29.40584719      19.39913692 
S      13.42907734      25.82327251      27.33419376 
S      34.55174655      20.23681684      27.81404511 
S      30.17426807      23.53569147      15.94685657 
S      18.54438766      25.56396207      34.58153379 
S      35.26086216      24.83874699      27.22502625 
S      20.19819865      20.84606282      34.92667054 
S      32.19578151      26.10830845      30.92550314 
S      23.64196782      19.67088710      12.74631963 
S      17.10545128      33.46386294      22.25156007 
S      15.74051544      26.12572224      30.74495087 
S      11.87792185      26.97500546      23.06308919 
S      24.35507413      13.15390174      17.50433640 
S      13.09895591      24.84814058      19.16475183 
S      21.56698881      13.51372222      29.11580044 
S      16.69445520      17.51890644      32.45143197 
S      15.71495986      15.74029930      21.05081464 
S      14.88962006      15.10967857      26.05068066 
S      25.28540675      32.83206135      16.20854372 
S      29.68605275      13.59861981      26.02832564 
S      20.13916989      13.89254757      19.21611940 
S      27.30705302      33.47819832      25.78686627 
S      12.87539624      21.66244770      27.39391545 
C      21.12228281      14.25936594      33.21031651 
C      30.40455472      32.83710490      19.85051529 
C      23.71639102      24.55143713      36.88101649 
C      23.68469870      18.92085459      37.09006521 
C      11.05919062      19.11654976      24.90423234 
C      32.64813958      15.75466116      29.30601568 
C      31.65463552      13.12035465      21.80123887 
C      31.27945589      19.89880700      15.58680575 
C      28.16006095      23.17536254      34.81430019 
C      22.25349835      29.34684216      35.97048819 
C      13.22775653      31.70022637      24.50647162 
C      17.20087522      16.70842555      15.85337084 
C      33.28161784      24.29349122      18.30123243 
C      26.47829598      32.44485510      34.02801782 
C      22.45223831      34.08898948      32.11915999 
C      16.91563137      33.26078007      17.58041972 
C      10.63028908      22.21298155      21.10516872 
C      26.46237229      12.20620699      27.32999460 
C      34.84712346      28.29924910      28.76359985 
C      28.27461971      27.75279593      34.73827610 
C      23.00572342      24.08558868       9.86093671 
C      26.84489277      26.16561676      11.38816193 
C      17.62043020      33.17235786      31.49566785 
C      29.50211222      18.54291698      34.12621003 
C      19.67175358      35.00723287      24.56141882 
C      32.64020587      32.41359252      29.09968201 
C      28.68566366      30.14391345      14.67097353 
C      34.49855721      16.64058877      25.25795300 
C      35.68715050      21.93465643      21.87063617 
C      17.61655672      12.88833770      25.18602183 
C      21.72525282      35.19502285      19.92755810 
C      12.43905356      17.87527850      18.61955392 
C      18.59245870      29.83298354      35.42982070 
C      33.52534717      31.39459552      23.84958342 
C      35.76934252      28.59929373      22.24121231 
C      31.99032913      30.76752346      33.47061549 
C      21.50913908      12.22428234      22.99792908 
C      33.24420863      17.93400078      20.10897491 
C      28.12633007      12.84702081      17.94924361 
C      14.34745599      29.65600918      30.46824526 
C      33.01397928      20.79402526      31.18737421 
C      18.84906373      25.70646378      13.17658501 
C      15.76109056      28.28476592      16.14485843 
C      26.27217686      11.43539825      22.36584282 
C      15.13921652      33.90536501      26.92306981 
C      15.11640267      20.77315857      32.73801850 
C      21.91124695      15.50301114      14.37400577 
C      23.08405535      29.28995908      12.54161714 
C      20.24432593      20.80929452      12.99777101 
C      21.60473758      33.08292614      15.27244159 
C      24.19845637      35.45551949      27.01045856 
C      11.89678443      18.06539397      30.12539847 
C      25.88153141      34.57316619      22.30238637 
C      29.42786715      20.63547814      11.99535521 
C      16.44108905      21.76829147      15.30694487 
C      27.84612164      16.08397620      14.35879289 
C      16.49511898      12.30011211      30.35012465 
C      29.84159436      13.81170118      31.09770213 
C      27.99939094      35.62445548      30.94725456 
C      32.51437132      29.42364812      18.18948287 
C      25.82037791      14.94457995      34.21782809 
C      12.93650583      30.21573803      20.32749118 
C      12.10517198      26.96911047      26.80143740 
C      36.09232699      19.65227913      27.00370367 
C      30.53036101      24.75799703      14.62921260 
C      18.60668248      24.31919767      35.92819469 
C      36.57839712      24.74859240      25.95007295 
C      20.06860880      19.55536124      36.22320652 
C      32.25048794      25.40992558      32.62046901 
C      24.80710540      18.82659217      11.61075161 
C      15.63224883      33.53634391      21.15910820 
C      15.34200359      25.26296545      32.30776509 
C      10.75672809      27.43289082      21.68285576 
C      22.91662086      12.40636490      16.64499161 
C      12.99884234      24.54044299      17.35862048 
C      21.56496317      12.01860689      28.05540501 
C      16.54312362      15.89607856      33.29166404 
C      13.94241166      15.27008135      21.01155301 
C      13.09911841      14.99894783      26.43014793 
C      26.96377671      33.48029652      15.84732934 
C      31.44936211      13.32241002      25.60225804 
C      18.39032907      13.43757686      18.88722710 
C      29.02606365      34.10696893      25.79637422 
C      12.17695705      22.19002142      29.00498494 
H      22.16846914      14.19536664      32.89232605 
H      20.98517416      13.73393667      34.16258156 
H      20.47455176      13.82165008      32.43912156 
H      30.87511861      33.19741002      18.92872283 
H      30.46446644      33.61086079      20.62524428 
H      30.90829052      31.93063061      20.20647594 
H      24.59413932      25.18987185      37.03619963 
H      22.92730103      25.13151419      36.39159826 
H      23.36326923      24.16611797      37.84442108 
H      23.32950131      18.12992188      37.75958329 
H      24.55499573      19.42083272      37.53202126 
H      22.89850301      19.66444433      36.91720334 
H      11.17311355      19.09062856      25.99494567 
H      11.08487146      20.15493252      24.55784423 
H      10.11359489      18.64531438      24.61195981 
H      33.42844315      15.68097153      28.53880545 
H      33.02953415      15.36845659      30.25802032 
H      31.76647273      15.18756844      28.99018121 
H      30.69146955      12.65519169      22.03925490 
H      32.08873115      12.65862340      20.90724910 
H      32.34364357      13.00041980      22.64551544 
H      31.13120728      20.96595770      15.38550892 
H      32.06801439      19.77609644      16.33944512 
H      31.56546830      19.37818418      14.66484678 
H      27.96361415      22.52114503      35.67180567 
H      29.10494544      23.71366322      34.95259836 
H      27.33905206      23.89430974      34.70289189 
H      21.47933993      29.95895295      35.49250345 
H      21.92307867      29.02668838      36.96513753 
H      23.17557467      29.93419812      36.05583550 
H      12.53529594      32.20402480      25.19042895 
H      14.17848502      32.24109399      24.45976879 
H      12.78358156      31.64760809      23.50504634 
H      17.49570955      17.20805294      14.92320883 
H      18.08169355      16.23518169      16.30207861 
H      16.42921854      15.95824654      15.64605914 
H      32.45444431      24.94627013      17.99381530 
H      34.15345870      24.89909766      18.57283622 
H      33.53703139      23.61446934      17.47840583 
H      26.91752857      33.17586267      33.34184742 
H      25.40316719      32.63452471      34.14054028 
H      26.97929340      32.48423352      35.00212947 
H      21.58101592      34.05956757      31.45613627 
H      22.24556856      34.75099409      32.96789351 
H      23.32042629      34.45984005      31.55970331 
H      15.97622706      33.47931798      18.10148471 
H      17.73981304      33.79903323      18.06141131 
H      16.82812261      33.55838542      16.52945109 
H      11.29515336      22.71114450      20.39184954 
H      10.54002968      21.15021875      20.85106083 
H       9.64396075      22.69070215      21.09470630 
H      27.35384952      12.80046387      27.54855932 
H      26.17091149      11.64425207      28.22540841 
H      26.67538969      11.51523799      26.50517577 
H      35.84484056      28.75196979      28.79690728 
H      34.30786191      28.50142161      29.69816600 
H      34.92977515      27.21773851      28.61199260 
H      28.30459643      27.16019475      35.66100832 
H      29.02525983      28.55134323      34.78483163 
H      27.28444846      28.20197615      34.62049480 
H      22.88759781      25.10190718       9.46779197 
H      23.68236521      23.51375046       9.21565414 
H      22.03198815      23.59050207       9.91025345 
H      25.93455880      25.64389824      11.07603463 
H      26.63508382      27.23321620      11.52729994 
H      27.63748129      26.03183710      10.64261936 
H      17.98075294      32.94043204      32.50509223 
H      17.10141266      34.13761672      31.48839196 
H      16.94657815      32.37957941      31.15444235 
H      30.34250191      17.97242399      34.53685463 
H      29.82763309      19.54177086      33.81776880 
H      28.71131075      18.63748377      34.88042388 
H      18.82569029      34.33065152      24.41428633 
H      19.50190678      35.60846130      25.46197298 
H      19.76406540      35.66335845      23.68698067 
H      32.45390473      31.98078829      30.08772139 
H      33.40732612      31.83347779      28.57192499 
H      32.95485985      33.45949150      29.19424696 
H      29.46025157      30.91908109      14.64338379 
H      28.81682655      29.46058835      13.82322394 
H      27.68637292      30.59747415      14.61995835 
H      34.18500439      15.59836747      25.39295544 
H      35.56947158      16.67666616      25.02790845 
H      34.28484989      17.21083923      26.16781652 
H      34.99728237      21.63161196      21.07644807 
H      35.96867435      22.98379264      21.71912744 
H      36.58224434      21.30297353      21.86904386 
H      17.19903115      12.44283847      26.09733040 
H      16.88726093      13.58346724      24.76030370 
H      17.85304158      12.10270418      24.45851353 
H      22.64642102      35.25591740      19.33547188 
H      21.10034905      36.07474611      19.73811216 
H      21.98333523      35.12665804      20.98931379 
H      12.56844055      18.18033036      17.57421394 
H      13.18877550      17.11487241      18.86271152 
H      11.42813294      17.48047731      18.77022665 
H      18.84559941      30.67842876      36.07841962 
H      17.57315909      29.49500872      35.65265086 
H      19.28294254      28.99887593      35.60607927 
H      34.03440376      30.49176189      24.21606530 
H      34.08161943      31.83401190      23.01360174 
H      33.44880409      32.12290098      24.66593532 
H      35.88433228      28.20093907      21.22618286 
H      35.01481301      29.39252760      22.22954581 
H      36.72800832      28.98636970      22.60456288 
H      31.66978332      30.00326970      34.18414181 
H      33.06637610      30.67348186      33.28418259 
H      31.76728833      31.76469419      33.86693056 
H      21.22231820      11.72543865      23.93087834 
H      20.68709882      12.86733667      22.65998374 
H      21.73771009      11.47840557      22.22741303 
H      33.35108211      17.26507010      19.24641182 
H      34.20018927      18.42676837      20.32354448 
H      32.92639566      17.35477506      20.98037439 
H      27.36555739      12.63782719      17.18740051 
H      29.00425784      12.21000193      17.79154841 
H      27.71139163      12.67276118      18.94740926 
H      13.43262778      30.25885498      30.47153439 
H      14.12676903      28.62032841      30.19058672 
H      14.81101080      29.67280192      31.46226456 
H      32.80988862      20.14634307      32.04873804 
H      33.14961095      20.18083562      30.29215098 
H      33.92157807      21.38280331      31.36689564 
H      18.89710062      24.61291220      13.22400591 
H      18.01402727      26.07007173      13.78915264 
H      18.73417899      26.04014500      12.13912717 
H      15.86619891      29.06233114      16.90647575 
H      15.90407017      28.73178966      15.15324697 
H      14.76108093      27.83981370      16.21084682 
H      26.90344731      10.56650184      22.58218077 
H      25.60604186      11.64958968      23.20797405 
H      25.66974536      11.24494325      21.46924841 
H      14.47943662      34.04208493      26.05846709 
H      14.76718869      33.08609892      27.54877687 
H      15.18213928      34.83606776      27.49982766 
H      14.86997461      21.54230528      33.47985123 
H      14.29855406      20.04594924      32.66513650 
H      16.03170810      20.24998801      33.02950346 
H      22.14895934      16.05429756      13.45617881 
H      22.83380096      15.07124950      14.78597311 
H      21.18364043      14.71348204      14.15301155 
H      22.30183768      29.72171510      13.17476295 
H      23.28843622      29.95291858      11.69279479 
H      22.76779918      28.30193079      12.18250395 
H      19.24061041      20.41924228      12.78896005 
H      20.70451730      21.17736154      12.07262196 
H      20.86858599      20.01677826      13.42081052 
H      22.59781886      33.19870719      14.82158611 
H      20.86712851      33.67602952      14.71996598 
H      21.63305507      33.39970612      16.32012442 
H      24.25344308      36.39811902      27.56667161 
H      25.15753995      35.24163695      26.52542760 
H      23.39980289      35.50480712      26.25876585 
H      11.66958881      17.34598855      30.92023680 
H      12.09554375      19.04880804      30.56221306 
H      11.04202767      18.13674089      29.44204491 
H      26.02555207      35.12500003      21.36625215 
H      25.75326062      35.27074451      23.13855968 
H      26.74489501      33.92277297      22.49266487 
H      30.13911700      21.06938963      12.70470248 
H      29.62063318      19.56012447      11.89905143 
H      29.53935691      21.11531659      11.01661642 
H      15.50869956      21.19216575      15.30620744 
H      16.52784904      22.34819298      14.38008887 
H      17.29878691      21.09123093      15.40089727 
H      28.34506938      15.80424505      15.29261751 
H      27.90869786      15.26170157      13.63682135 
H      28.31573018      16.98528384      13.94610247 
H      15.41011560      12.28467064      30.50505603 
H      16.75499838      11.69382729      29.47806184 
H      17.00298254      11.91113560      31.24011622 
H      30.79268530      13.60434435      30.59329379 
H      29.94567364      14.69678296      31.73498284 
H      29.54921030      12.94264747      31.69771405 
H      28.09109944      36.07721049      29.95616581 
H      27.18810935      36.10720318      31.50427001 
H      28.94216595      35.73300461      31.49563178 
H      32.69548270      28.87506958      17.25744363 
H      31.50823185      29.85857020      18.16329292 
H      33.26658478      30.21164468      18.30901140 
H      26.58925954      15.71681181      34.11320784 
H      25.10269608      15.23919856      34.99292638 
H      26.28312011      13.98486785      34.47477745 
H      12.81688582      29.76586505      21.31851460 
H      13.19910761      31.27545714      20.43205026 
H      12.00907055      30.12165126      19.75118201 
H      12.33283841      27.44836250      25.84532255 
H      11.18040495      26.38733936      26.70606807 
H      11.98905806      27.73502158      27.57781549 
H      36.12288864      19.94701249      25.94893448 
H      36.94662275      20.07792806      27.54222070 
H      36.11735488      18.55923890      27.08430755 
H      29.83609311      25.60278479      14.66588452 
H      31.55774610      25.11165645      14.77737719 
H      30.43968537      24.25851382      13.65699756 
H      19.51057681      23.70430173      35.86497835 
H      18.57128775      24.84929636      36.88690854 
H      17.72317386      23.67825507      35.82483099 
H      36.79109449      25.77253979      25.61920261 
H      37.46889367      24.30857354      26.41360417 
H      36.26018008      24.14054451      25.09706153 
H      20.08058988      20.03318280      37.20925836 
H      19.10744017      19.04958615      36.06888537 
H      20.87693635      18.81801891      36.14105007 
H      32.32288876      24.31976289      32.51824424 
H      33.13941196      25.80447834      33.12548811 
H      31.34415450      25.67285343      33.17862471 
H      25.75216529      19.37387115      11.52867226 
H      24.99004662      17.82623991      12.02208810 
H      24.32224453      18.74923623      10.63065895 
H      14.74772335      33.42681790      21.79815889 
H      15.60861379      34.51243973      20.66147124 
H      15.65391754      32.73009356      20.41843276 
H      15.36554702      25.99515526      33.12302115 
H      14.33618457      24.83837028      32.20539082 
H      16.06437685      24.46129819      32.50621238 
H      11.11480941      27.02830855      20.72948018 
H       9.75713995      27.04512240      21.90913455 
H      10.72133118      28.52738462      21.63149252 
H      22.38513549      11.78955135      17.37932011 
H      22.23492996      13.17306338      16.26245725 
H      23.28807793      11.78018858      15.82603870 
H      12.81791050      23.46742040      17.22239780 
H      12.15853475      25.11542316      16.95387446 
H      13.93203944      24.81465655      16.85596533 
H      22.58225140      11.90752554      27.65898546 
H      21.30236234      11.15430152      28.67577658 
H      20.85474369      12.12866661      27.22800668 
H      16.52147287      15.07729553      32.56529320 
H      17.41715588      15.78763332      33.94534676 
H      15.62550964      15.89519547      33.89074677 
H      13.29306056      16.15222780      20.95037774 
H      13.76586529      14.59911720      20.16336333 
H      13.73736013      14.74127112      21.95050385 
H      12.83198182      13.93706273      26.48048975 
H      12.86501267      15.49721708      27.37707034 
H      12.56176726      15.48676151      25.60759060 
H      27.72003655      32.69028668      15.90042608 
H      26.95369165      33.93750828      14.85156503 
H      27.18664262      34.23883930      16.60713093 
H      31.76934909      13.99873429      24.80292884 
H      32.03702639      13.51660757      26.50769108 
H      31.57993634      12.27881558      25.29428423 
H      18.35342167      12.87492282      17.94734762 
H      18.05525702      12.80146169      19.71506664 
H      17.74593111      14.32231251      18.82604267 
H      29.13376464      34.79023901      24.94522931 
H      29.19811283      34.64633527      26.73574620 
H      29.74936583      33.29052077      25.70825111 
H      12.02955808      23.27664790      28.97608104 
H      11.21098715      21.68836456      29.13830070 
H      12.84992027      21.93661901      29.83270875 
