699
Properties=species:S:1:pos:R:3 i=71 optimized=T E=-11498.1079430358 pbc="F F F" jobid=279_84-Ag-69_9-000003-PBE
Au      33.13649794      25.36751417      26.00813344 
Au      32.08135726      29.20513370      21.39520028 
Au      34.49242583      28.17042786      25.46436139 
Au      29.91156233      15.12471224      19.64726585 
Ag      33.82950048      19.53366013      23.69445305 
Au      27.44599822      23.39647970      13.13497899 
Ag      18.30133616      33.12270524      28.11193012 
Au      28.48124525      30.80504053      18.15127968 
Au      24.93028059      21.18070705      23.23598368 
Ag      26.30762615      23.22066877      24.91600105 
Ag      28.20971082      25.05235469      23.63330128 
Ag      23.80108054      21.63264734      29.00756227 
Ag      23.39679907      27.87634576      26.95601979 
Au      26.91934271      23.02397532      21.99560698 
Ag      22.41161846      19.56918590      27.41188775 
Ag      27.23407985      21.12504794      26.72554270 
Ag      22.04351543      21.46797212      22.71667554 
Ag      21.02779953      23.53263819      20.87617488 
Ag      27.66298866      25.25508293      26.56159826 
Ag      19.99714416      24.03978470      26.68914781 
Ag      25.47906747      21.02118466      20.32668935 
Ag      24.32645870      25.76050084      28.76122882 
Au      23.88842034      27.66411067      24.07276230 
Ag      26.25319689      27.59712721      27.57028830 
Au      20.93796324      21.90122740      28.39789264 
Ag      22.88477857      23.72054525      27.18577198 
Ag      21.49021588      21.68647114      25.59502547 
Ag      19.54424078      19.84531469      26.88200254 
Ag      25.82891663      19.11127941      25.07345442 
Ag      25.25730984      23.60993338      30.71595098 
Au      23.00943045      25.31486898      19.60043415 
Ag      21.01864902      27.89391908      23.51976290 
Ag      26.71292776      27.33881340      24.69243432 
Ag      22.59338502      21.28993560      19.85233546 
Ag      21.97440149      25.82383104      25.35963419 
Ag      27.19301062      25.46452337      29.43494544 
Au      20.15398812      19.64480652      24.03105390 
Ag      25.90401950      25.05611474      20.19670059 
Ag      23.48591530      19.19365643      21.65206354 
Ag      22.36363959      23.92609379      30.02372754 
Au      21.06363982      17.51009064      25.83634360 
Ag      21.56401016      27.62316375      20.62205442 
Au      24.45754806      27.38997097      21.22934488 
Ag      24.55002815      23.08732183      18.55126374 
Ag      28.63747478      23.15787664      28.43420464 
Ag      18.62829794      21.98387124      25.09520916 
Au      26.71801083      21.28091599      29.60173791 
Ag      22.43971403      30.02694009      25.09245959 
Ag      27.27729251      27.10715490      21.82124702 
Ag      21.79616440      19.74809085      30.30179999 
Ag      18.50530202      26.38875855      27.69362032 
Au      23.15329169      21.78781395      31.90606567 
Ag      21.60993934      23.35428474      17.98955299 
Ag      17.11620800      24.30198479      26.19399312 
Ag      27.46898133      22.79399563      19.08227262 
Ag      23.91280572      17.18799528      26.32322272 
Ag      23.28858055      17.48391351      29.24913376 
Ag      25.25695922      29.72585557      25.67715498 
Ag      21.57951769      17.24424594      22.93285701 
Au      28.78816017      18.79686837      25.66848155 
Ag      22.86947995      29.76298406      22.22109766 
Ag      25.36145895      25.31227861      23.06570309 
Ag      20.07916150      25.62468363      19.00994672 
Ag      29.54506277      27.07991679      25.33553481 
Ag      19.41390575      24.28299801      29.53118696 
Ag      18.02932406      22.22926971      27.95407525 
Ag      20.05496806      28.35328257      29.28290326 
Au      23.78520735      25.92104529      31.58255247 
Au      20.98780115      26.31345388      31.07836310 
Au      26.39115791      18.95964305      22.12533136 
Au      24.67007881      19.55493193      30.86047999 
Ag      20.40318155      17.73492577      28.74107569 
Ag      28.88543410      24.77629517      20.75790862 
Au      19.59064641      30.19998406      24.56559144 
Ag      25.75573133      29.52682578      22.79437963 
Ag      24.93769465      27.15800200      18.32058771 
Ag      28.43661923      20.74315131      20.88100339 
Ag      29.12756652      27.37280011      28.22642707 
Ag      30.06006393      20.89114934      27.30089079 
Ag      18.13870968      23.85821784      20.36950944 
Ag      17.69223916      19.67760348      20.66040248 
Ag      25.72544676      27.76677325      30.43382329 
Au      28.10341404      23.41510072      31.26077633 
Ag      21.97359633      30.16102354      28.04328935 
Ag      21.78964746      24.19577904      32.89155674 
Ag      18.69208266      27.90689227      20.09092898 
Ag      16.25206009      21.94614432      21.67180604 
Ag      30.50047801      25.00980899      27.13311175 
Au      23.43344095      23.48937090      24.31553294 
Au      20.04172001      29.97944599      21.64286013 
Au      16.64047549      20.12312544      26.41232018 
Au      26.76815239      17.09475310      26.89351050 
Ag      29.99340220      25.21225746      29.99150950 
Au      17.60348617      28.47048119      25.90322524 
Ag      16.24743176      26.36984796      24.31261724 
Ag      28.53107083      29.15772216      23.38302206 
Au      27.87438446      26.82821172      19.00827701 
Ag      24.14473544      18.94557289      18.67921727 
Au      27.37105435      16.81902908      23.97752685 
Ag      26.97348001      18.73525621      19.22798015 
Ag      25.93883560      21.47125178      32.65590942 
Ag      12.72734399      18.79725189      22.08602191 
Au      23.13756246      21.04743490      17.02856300 
Ag      26.39133419      29.16896210      19.83446905 
Ag      19.92693018      19.64965284      32.48199929 
Au      26.09626428      17.29707634      29.76033506 
Ag      29.24681904      18.68662747      22.75842549 
Ag      27.65563660      29.67699933      29.21184094 
Ag      15.19031280      22.45271720      27.40472994 
Ag      26.04216817      20.82530610      17.38114009 
Au      24.52749191      23.96084991      33.51339506 
Ag      23.60748361      25.15636457      16.67558981 
Ag      17.56921395      18.03597015      28.21134392 
Au      19.20285947      30.41673254      27.43422198 
Au      23.52370700      29.44375759      19.36773931 
Au      22.43926693      25.57302508      22.45745362 
Au      16.14142040      20.29499489      29.24552935 
Ag      27.49535244      19.21147661      31.42816466 
Au      29.16752583      28.92145557      20.56522110 
Ag      16.57560522      24.53479217      29.02121111 
Ag      31.94870308      22.78227577      26.06562624 
Au      16.62091398      21.68647020      18.79990908 
Ag      24.87299532      31.51009240      20.79625700 
Ag      21.98523103      31.72690588      20.26593206 
Ag      20.74045427      25.34563801      16.19576698 
Ag      24.28720774      31.85455451      23.84292018 
Ag      20.64664262      29.62759053      18.79676985 
Au      23.09223532      14.98236552      21.64523876 
Ag      30.34423515      22.48448091      19.59720390 
Au      25.13449728      22.93602732      15.65013014 
Ag      18.73993700      23.63502968      17.42950090 
Au      28.87235728      20.57140020      18.02063234 
Ag      17.62421055      22.43808767      30.93193284 
Ag      17.22716953      28.79087689      28.78898271 
Ag      27.86188063      16.69171278      21.03559141 
Ag      15.61651807      26.89792626      27.12970645 
Ag      18.94629348      15.77038172      27.11311816 
Au      19.55351914      15.42820456      24.00752787 
Ag      18.16135819      26.69108344      30.66508327 
Au      20.09817585      15.38884086      21.28372150 
Ag      27.21032058      31.50292465      24.31924985 
Au      25.03029459      15.21303820      28.27943891 
Ag      23.97983278      23.27339539      21.43227312 
Ag      20.21824013      21.22573572      16.46730079 
Ag      27.95349584      22.84564071      16.01856177 
Ag      31.40965627      20.32865951      21.71989408 
Au      26.78915031      31.67034489      27.38050188 
Au      25.67474685      14.92329391      25.18689325 
Au      28.65012886      16.19388899      28.84763684 
Au      26.01869887      14.87055623      22.26228740 
Ag      32.60490070      22.54795754      23.26429319 
Ag      25.66056450      30.50673120      31.25377411 
Ag      22.89309124      30.89433906      30.69358962 
Au      24.26323826      17.01010723      31.95984731 
Ag      31.30636772      17.88288344      24.73089563 
Ag      17.11988902      26.01243422      18.59223359 
Ag      31.51572351      22.88436612      28.87338482 
Ag      29.34705531      16.00858438      25.96186632 
Ag      15.59241489      29.22253934      23.97016438 
Ag      16.10671302      28.94603248      21.09297120 
Ag      17.10273054      31.25652660      25.59899430 
Ag      29.42073878      24.74214615      17.88263971 
Ag      30.71506862      18.02569856      27.62574450 
Ag      18.62099909      17.56326047      30.94292444 
Au      23.90365587      19.68372581      33.59672685 
Ag      18.09857145      30.68238727      19.69737855 
Ag      17.52565838      31.00594051      22.63855281 
Au      14.21086115      27.09393707      22.46028017 
Au      32.62968910      20.02279832      26.38661118 
Ag      24.82800862      25.54045335      25.94857921 
Au      32.85963194      26.64938016      23.12840516 
Ag      24.67999507      20.17854000      14.80068893 
Ag      20.05075128      31.04651305      30.08904090 
Ag      31.78585447      27.64918621      27.06188562 
Ag      23.87928149      28.61804652      32.52637501 
Ag      29.88212967      15.91389706      23.04717745 
Au      22.30849894      17.03416270      34.47321580 
Au      13.43763731      19.46148759      28.36723284 
Au      24.09554239      27.83736452      15.63693888 
Ag      15.63440417      17.72346345      30.70303913 
Ag      25.67537641      25.64759284      14.68316830 
Ag      28.52339279      30.36562098      32.16286893 
Ag      22.66545983      30.11131613      16.78570230 
Ag      22.03815367      21.79335050      34.74660824 
Au      31.37994891      28.29714058      31.00501188 
Ag      19.69440963      15.05161024      29.82996025 
Ag      22.73295965      25.69506073      13.88473009 
Ag      16.24305177      15.20332428      28.14897634 
Ag      25.03060040      32.78282340      29.45627996 
Ag      26.53936579      14.63653385      30.91239968 
Ag      28.37242219      13.54721061      24.04074073 
Ag      16.28697907      17.14223861      19.63213022 
Ag      16.05845997      17.34456009      23.31575178 
Au      20.71722719      15.49565107      17.61016584 
Ag      11.90929996      24.50839012      22.95046131 
Ag      14.75627450      30.03427896      26.97155416 
Ag      24.35019208      21.37905417      26.12863060 
Au      14.93495189      19.91954743      20.11420889 
Ag      25.39399881      31.05473636      17.96697311 
Ag      27.65206793      20.11882107      15.04654944 
Ag      30.15826566      26.95611032      22.46861820 
Ag      31.02040501      24.83470278      24.23344898 
Ag      31.73460963      24.69422983      21.43261974 
Ag      20.53714689      23.79222563      23.80002578 
Au      25.19092565      14.98274307      15.91450922 
Ag      30.80968786      29.57832100      25.02752327 
Au      25.74615151      23.41712941      27.80796745 
Ag      26.97757260      27.69093365      16.44051476 
Ag      20.78694835      31.38316957      32.99088247 
Ag      17.69397036      24.02720008      23.25919809 
Ag      22.98166206      19.31327804      24.50926812 
Ag      27.78867382      20.93295812      23.82685148 
Ag      19.58242316      25.86395247      21.93697712 
Ag      24.94940794      30.90233983      14.96210118 
Ag      25.22038315      19.33562948      27.94247051 
Au      19.07662367      26.08559731      24.84057107 
Ag      20.57154172      28.10467109      26.39275025 
Ag      21.45804487      26.03574314      28.21843775 
Ag      29.12640562      22.99450097      25.49968430 
Au      19.17621807      21.75221442      22.19748433 
Ag      24.49466736      17.01165637      23.46473329 
Ag      22.91908394      28.13990718      29.86862902 
Ag      20.63232261      19.45164366      21.13647372 
Au      20.40112217      22.20610194      31.26887038 
Ag      24.81623284      29.93731631      28.61731143 
Ag      18.08982254      28.22362604      22.98404701 
Ag      28.18285098      19.00998783      28.58528537 
Ag      18.98999939      20.13245553      29.75352345 
Ag      29.78832153      22.69649342      22.60520617 
Au      19.63508875      21.53688783      19.25906277 
Ag      18.17499087      17.79398808      25.28766007 
Au      15.75190763      22.24136750      24.53600111 
Ag      16.70355354      26.16138567      21.42739624 
Au      26.50903732      24.93810522      17.32695547 
Ag      28.10309587      29.40034578      26.21890037 
Au      17.25158247      19.90756636      23.54112242 
Ag      18.74501182      17.64479253      22.40400714 
Au      30.69256486      20.68976326      24.43384424 
Ag      22.11771465      27.41116621      17.74299370 
Ag      21.15816536      19.29069119      18.32733651 
Au      22.14627004      17.20514310      19.98790274 
Au      21.91789206      15.50184393      27.61224168 
Ag      19.03364464      24.45517966      32.37489052 
Ag      26.48182166      25.68869379      32.42186390 
Ag      14.85260042      24.30817014      22.75260816 
Ag      29.59111962      20.91233115      30.19360043 
Ag      23.84495705      31.94536839      26.71620196 
Ag      22.46201748      15.16377573      24.78552044 
Au      24.98984485      16.95015962      20.55843867 
Au      28.48652092      27.64714410      31.03900104 
Ag      19.27914293      17.45717641      19.51512008 
Ag      27.69899960      31.18509605      21.52029421 
Au      15.33314449      24.10512102      19.94376380 
Ag      21.39372710      17.14066344      31.45048782 
Ag      21.21233581      32.08990076      23.13327860 
Au      14.31323775      24.51614467      25.51312123 
Au      22.37531304      22.98835909      15.04739755 
Ag      30.66968309      26.69248431      19.56326633 
Ag      18.29204784      19.49022849      17.80096470 
Au      22.77634118      18.39374027      16.18993929 
Ag      15.42018760      17.60774344      26.22886535 
Au      30.32512141      29.90746823      27.87477779 
Au      29.81371757      18.34245702      19.92953964 
Au      13.60466852      21.74196713      22.67136731 
Ag      30.39821855      17.66262641      30.75529634 
Ag      26.51337189      16.03253361      18.40166178 
Ag      20.92785640      32.32665745      26.23410632 
Ag      19.26791139      27.77230175      17.12061673 
Ag      25.80221062      18.11290548      16.48195048 
Ag      14.52432934      19.62986027      24.41027540 
Ag      19.04324001      33.22694752      20.91220399 
Ag      23.97550104      22.31873339      12.63343648 
Ag      34.51694367      22.48486137      27.48891341 
Au      28.74788734      32.73161398      29.41201070 
Ag      19.36046452      31.00582253      16.56214660 
Au      23.60939646      15.11090195      18.83578607 
Ag      14.09288055      27.15626333      19.47300337 
Au      20.89095506      26.74640267      34.31388517 
Ag      19.83408476      28.64061952      32.11245690 
S      20.55250123      15.83823218      33.46989195 
S      28.39202573      32.66592047      19.62989702 
S      24.03208496      22.89709168      35.65808591 
S      24.06932483      18.21321372      35.51931923 
S      12.54705666      18.11736375      24.39160020 
S      32.33870307      17.30320969      29.34130223 
S      31.44789808      14.89734967      21.42242679 
S      29.51228268      18.98662014      16.25692028 
S      28.29731678      21.97900440      33.25781723 
S      23.00248469      27.74467929      34.70110036 
S      13.48107655      30.12343666      24.91338973 
S      16.46021363      17.88850156      17.31381672 
S      32.76312524      22.97460849      19.96873320 
S      26.51597775      30.39907675      33.57541586 
S      22.90836227      32.45353104      32.67059117 
S      17.21349046      31.49707528      17.53943545 
S      11.22558955      22.20075543      22.64072502 
S      24.98191843      13.22908897      26.83121280 
S      33.80315382      29.16461419      27.47551018 
S      28.73143811      26.37874596      33.20462604 
S      23.94988699      24.65980755      11.99012453 
S      27.69436272      25.74124337      13.23906185 
S      19.17264056      33.34607642      30.35882048 
S      28.93513276      17.66321557      32.68317066 
S      21.27898115      34.13351194      24.53215836 
S      30.60770397      32.33277191      28.00841535 
S      28.89646779      29.27472883      16.38509223 
S      33.48798088      17.12982751      23.86016022 
S      34.91980434      21.69852688      23.56562526 
S      19.20176953      13.69699905      25.69239999 
S      20.77904773      33.65380518      19.29262980 
S      12.65293105      19.24087129      19.71596331 
S      18.69727936      30.31881292      33.52597414 
S      31.70023816      30.84017966      23.07680453 
S      35.22275461      27.17483638      23.45012352 
S      30.88666168      30.54150572      31.58426839 
S      23.02567374      13.21020574      23.30781564 
S      32.12420617      19.12814386      19.64116974 
S      28.61019867      14.90176783      17.69735848 
S      15.48298781      30.50208452      29.23032842 
S      31.73748017      21.82014241      31.10927716 
S      20.61840865      26.98102164      14.33033136 
S      17.04132197      26.95612022      16.29820475 
S      27.35722319      12.84557066      21.94299151 
S      16.85291450      33.62637946      26.24051982 
S      15.24143063      21.79356360      31.05115666 
S      21.08000001      16.73786997      15.61469397 
S      24.78739776      28.98360045      13.52732719 
S      20.09304157      22.39918004      14.26197356 
S      21.27435728      31.28403766      15.12200248 
S      23.09058294      33.76704583      28.23053051 
S      13.72165812      17.28752496      29.25827525 
S      24.29661053      33.58621896      22.03372674 
S      27.44596353      21.07185922      12.75332288 
S      16.42498792      22.98142706      16.72954262 
S      26.01375700      16.61875559      14.44638337 
S      17.29752467      14.53659015      30.23383780 
S      28.67270310      13.99567400      29.91806957 
S      27.01149804      33.47564840      30.83134522 
S      32.83881965      27.91652846      19.54311182 
S      24.83847686      14.75237443      32.64917986 
S      14.36139562      29.56849318      19.43925645 
S      13.33526654      25.87220848      27.28855475 
S      34.65035929      20.08377797      27.75971290 
S      30.42658833      23.36539938      16.09409648 
S      18.70526436      25.83056199      34.42033525 
S      35.16964965      24.79051833      27.24921978 
S      19.79697129      20.84179158      34.65344097 
S      32.22130057      26.11278865      30.68178875 
S      23.56661686      19.91643393      12.60773251 
S      17.00678511      33.38601716      22.20522688 
S      15.70177879      26.33926011      30.53508405 
S      11.80430866      26.91915433      22.92538556 
S      24.36880379      13.32508707      17.38141925 
S      13.17564096      24.93327284      19.12698257 
S      21.84799562      13.86099418      29.41509604 
S      16.95269203      17.83697608      32.75598230 
S      15.82037834      15.66770399      21.52192046 
S      14.96362696      15.19524385      26.07994096 
S      25.23953126      32.87768969      16.29778610 
S      29.77302910      13.57594989      26.01263273 
S      20.09086879      13.93370459      19.28727128 
S      26.92580788      33.54888609      25.73469691 
S      12.82901391      21.58778813      27.54983879 
C      21.16918798      14.11323399      33.36062926 
C      30.15486890      33.10090817      19.91810426 
C      23.47038612      24.23699504      36.78445954 
C      23.36736473      19.08341964      36.97317378 
C      11.12485685      19.08608363      25.03963540 
C      32.48635750      15.48144902      29.14907664 
C      31.50300295      13.07572978      21.65754737 
C      31.09292963      19.62017772      15.57795368 
C      28.23065847      23.01183075      34.77092865 
C      22.68021327      29.19339719      35.78195882 
C      13.41090969      31.90256176      24.45422933 
C      17.04834329      16.47605385      16.29557556 
C      33.44643698      23.89936993      18.53505573 
C      26.34870463      32.08517395      34.28591550 
C      22.49204118      34.15136639      32.10377317 
C      17.19416923      33.33629840      17.49134860 
C      10.68249876      22.19444470      20.88414164 
C      26.45150687      12.22183311      27.26238793 
C      34.83373640      28.37277193      28.77190849 
C      28.61425000      27.49873245      34.65320629 
C      22.69535425      24.78721668      10.64687605 
C      27.18017137      26.39084710      11.60189912 
C      17.62721409      33.19667798      31.34737611 
C      29.83233839      18.60649701      33.98016812 
C      19.71971632      35.07888143      24.32308059 
C      32.12350447      32.69842252      28.96914015 
C      28.79782825      30.25815206      14.83808786 
C      34.43893754      16.60259078      25.34381250 
C      35.78420993      21.76625683      21.94581924 
C      17.63966413      12.84969379      25.23731341 
C      21.62238591      35.19315288      19.83928179 
C      12.69041865      17.66046960      18.78337220 
C      18.79854723      29.76636134      35.27696820 
C      33.37056672      31.43109478      23.56212820 
C      35.68964865      28.52435197      22.30193970 
C      31.75388729      30.74491298      33.19442578 
C      21.52553825      12.23177511      22.92175228 
C      33.29354343      17.77427143      20.03608460 
C      28.18244361      13.11451744      17.75427198 
C      14.20212596      29.81548563      30.35428081 
C      33.08136577      20.57328604      31.07693058 
C      19.33405846      26.27939363      13.21858710 
C      15.82614159      28.32323867      16.17122230 
C      26.27378821      11.42422228      22.36516492 
C      15.24913312      33.91617196      27.09419125 
C      14.94587238      20.90274296      32.62731802 
C      21.79573684      15.56740285      14.39972327 
C      23.27476225      29.26447601      12.52645134 
C      20.19551755      21.13093703      12.93781550 
C      21.60616474      33.08108357      15.34929885 
C      23.68755461      35.28281590      27.38032267 
C      12.27899586      17.09222225      30.38556730 
C      25.83109881      34.59149154      22.10041927 
C      29.10368255      20.74730141      12.02219701 
C      16.47028611      21.74789790      15.37453483 
C      27.77893517      16.18660722      14.18645167 
C      17.26724219      12.69321434      30.24424904 
C      29.80094724      13.96847812      31.36767561 
C      27.02369390      35.30794991      30.64327871 
C      32.73586187      29.05552094      18.10319993 
C      25.83281723      14.98367664      34.17811996 
C      12.96199110      30.23150817      20.43134394 
C      12.07753244      27.00108036      26.58173436 
C      36.13000528      19.68893816      26.74255539 
C      30.90577794      24.50031517      14.72866045 
C      18.73038116      24.68038224      35.85449823 
C      36.50108115      24.66775931      25.98800394 
C      19.63655485      19.55921481      35.95931959 
C      32.40039943      25.47808316      32.39536179 
C      24.71863309      19.07657581      11.45300252 
C      15.63407270      33.43013269      20.98184633 
C      15.17236180      25.63426892      32.14818829 
C      10.81532485      27.25922361      21.41448993 
C      22.89142037      12.57738554      16.59245616 
C      13.11750875      24.67339232      17.31059133 
C      21.43018186      12.26658599      28.60911776 
C      16.78829900      16.20211812      33.57816628 
C      14.04244722      15.20751947      21.46292594 
C      13.19570795      14.94455768      26.50017081 
C      26.92795318      33.52506401      15.96769715 
C      31.50225220      13.30658163      25.45069352 
C      18.33364025      13.52041285      18.95274595 
C      28.52239084      34.44396863      25.87503174 
C      12.11646427      22.43989207      29.00882085 
H      22.20312749      14.07969215      32.99866516 
H      21.10423839      13.65685235      34.35467891 
H      20.51648041      13.57701460      32.66072456 
H      30.60030371      33.43222406      18.97375044 
H      30.16881640      33.92725913      20.63914055 
H      30.71626497      32.25434760      20.32810087 
H      24.34868563      24.81354093      37.09731740 
H      22.75746146      24.90678205      36.29166049 
H      23.00431578      23.77171108      37.66092201 
H      23.17456481      18.34267289      37.75768232 
H      24.11699068      19.80755643      37.31272139 
H      22.44373581      19.61318877      36.71891491 
H      11.26406046      19.21751280      26.11979123 
H      11.05211314      20.06745769      24.55850409 
H      10.21182789      18.51171936      24.84524495 
H      33.23581210      15.28996323      28.37186564 
H      32.83256966      15.05149840      30.09591802 
H      31.53321595      15.02591014      28.85692638 
H      30.50627444      12.66126498      21.84465613 
H      31.93569442      12.62093833      20.75972009 
H      32.15552895      12.87569098      22.51551193 
H      31.04906791      20.70448857      15.41771216 
H      31.88554595      19.39094974      16.30134285 
H      31.29151872      19.10296660      14.63169795 
H      28.17852395      22.33524633      35.63200565 
H      29.14326035      23.61637238      34.81833844 
H      27.35186145      23.66779089      34.76238975 
H      22.03349928      29.93096753      35.29035284 
H      22.22574612      28.85880138      36.72109645 
H      23.65424017      29.65342675      35.98991247 
H      12.78333806      32.43412199      25.17831647 
H      14.40845707      32.35557997      24.42226487 
H      12.95045497      31.96788849      23.46110547 
H      17.16535449      16.83012227      15.26459433 
H      18.01290726      16.09108289      16.64948455 
H      16.29522180      15.68072447      16.32493178 
H      32.65528196      24.45779440      18.02064372 
H      34.22277943      24.58739676      18.88650540 
H      33.87816947      23.16634780      17.84348546 
H      26.74239145      32.83826682      33.59511959 
H      25.28564321      32.28281180      34.46597585 
H      26.90511635      32.11234597      35.22980911 
H      21.60596317      34.15624148      31.45894096 
H      22.31033857      34.76968407      32.99031001 
H      23.34954835      34.54517730      31.54481348 
H      16.31437737      33.68138183      18.04670663 
H      18.10005916      33.76413956      17.93490636 
H      17.10720911      33.65337058      16.44598293 
H      11.35839832      22.78542182      20.25668231 
H      10.65649543      21.15849508      20.52706259 
H       9.67500047      22.62585710      20.85253324 
H      27.33749714      12.83717433      27.44565227 
H      26.21203943      11.65150431      28.16810387 
H      26.64952169      11.53278203      26.43213744 
H      35.81855470      28.85296401      28.77615911 
H      34.32742066      28.53760678      29.73140465 
H      34.94016423      27.29641163      28.59663607 
H      28.56150320      26.87256874      35.55234055 
H      29.51726585      28.11966672      34.69501749 
H      27.73364342      28.14671884      34.60106007 
H      22.59298266      25.84218339      10.36656646 
H      23.04841895      24.21432806       9.78149301 
H      21.72339244      24.40151573      10.96995116 
H      26.26054394      25.90265988      11.26130826 
H      26.99780556      27.46541038      11.72374797 
H      27.99340193      26.22415230      10.88690452 
H      17.89390360      32.95863075      32.38391020 
H      17.10623115      34.16000992      31.30761968 
H      16.97571222      32.40933464      30.95158587 
H      30.72186865      18.04060154      34.27801020 
H      30.11729256      19.60234296      33.62432944 
H      29.15972359      18.71359146      34.83930862 
H      18.83929904      34.43111439      24.28376553 
H      19.61651651      35.76453151      25.17225747 
H      19.78682879      35.65579675      23.39272937 
H      32.07214380      32.24086702      29.96313911 
H      32.97080285      32.28335730      28.40972824 
H      32.22131210      33.78719317      29.04952509 
H      29.55654519      31.04842242      14.85642137 
H      29.00510642      29.57094614      14.00873473 
H      27.80078848      30.69640897      14.70091270 
H      34.19155860      15.55244184      25.53997315 
H      35.51033807      16.68566834      25.12899043 
H      34.18495463      17.20541721      26.22275190 
H      35.07051607      21.68845206      21.11782461 
H      36.29738269      22.73350579      21.88567719 
H      36.52070328      20.95728415      21.89244955 
H      17.28813037      12.28689210      26.11052772 
H      16.86415125      13.56085451      24.93658150 
H      17.85328184      12.15754941      24.41463138 
H      22.43050495      35.39518363      19.12619833 
H      20.90376526      36.01964636      19.82485372 
H      22.05161549      35.07633039      20.84030532 
H      13.03946502      17.87408725      17.76681396 
H      13.36132854      16.92762032      19.24345327 
H      11.66916388      17.26274508      18.75445088 
H      18.79467583      30.64628633      35.92946186 
H      17.91472103      29.14983582      35.47844798 
H      19.69363920      29.16308536      35.46323006 
H      33.96458630      30.62553732      24.01384149 
H      33.88212440      31.83482304      22.68131197 
H      33.22786336      32.23038539      24.29953319 
H      35.90993492      28.06310562      21.33198006 
H      34.87224593      29.24303216      22.17529130 
H      36.58311250      29.02205602      22.69527075 
H      31.45511383      29.97670276      33.91347588 
H      32.83492797      30.68816999      33.02286025 
H      31.49583222      31.73567576      33.58706731 
H      21.39584282      11.50187976      23.73014748 
H      20.63903398      12.87622582      22.86877041 
H      21.67099337      11.71426216      21.96718618 
H      33.25510753      17.03271253      19.22987163 
H      34.29788166      18.21294990      20.08793970 
H      33.06349630      17.28512093      20.98694996 
H      27.45035763      12.92581331      16.95928827 
H      29.09073369      12.53020895      17.57070999 
H      27.75112453      12.84025254      18.72287620 
H      13.23437143      30.27641717      30.12922391 
H      14.13977148      28.72579907      30.25834907 
H      14.49857241      30.06753819      31.37965099 
H      32.95105409      19.90511395      31.93691699 
H      33.07650928      19.97844308      30.15942679 
H      34.04246900      21.09383601      31.16041281 
H      19.44099576      25.19201637      13.12889618 
H      18.35004089      26.51329380      13.64463461 
H      19.43737397      26.74913765      12.23363284 
H      15.88583267      29.01584875      17.01545673 
H      16.02807370      28.87486504      15.24561252 
H      14.81862217      27.89207614      16.12882606 
H      26.90353399      10.58403782      22.67885705 
H      25.56419880      11.68639939      23.15704611 
H      25.71484247      11.15130672      21.46218277 
H      14.46944128      34.01934684      26.33074718 
H      14.99489794      33.09311835      27.77129155 
H      15.32426929      34.85139972      27.66040814 
H      14.61010696      21.64466193      33.36232735 
H      14.15772161      20.15575495      32.47461893 
H      15.84848982      20.40336666      32.99153493 
H      21.97835636      16.13398321      13.47843815 
H      22.74558071      15.14675448      14.75817231 
H      21.06997907      14.76927453      14.20590162 
H      22.47953038      29.72920576      13.11999333 
H      23.54632967      29.91755239      11.68879834 
H      22.93088988      28.29423489      12.14733347 
H      19.16992214      20.81346104      12.71270739 
H      20.64972553      21.57395356      12.04388669 
H      20.79132350      20.26756578      13.24872675 
H      22.62053538      33.29736829      14.99354720 
H      20.87510195      33.63902096      14.75333174 
H      21.52285729      33.37211887      16.40255002 
H      23.66717845      36.11242260      28.09623282 
H      24.70347106      35.14384978      26.99189614 
H      23.00573228      35.48982546      26.54535139 
H      12.40794981      16.14709979      30.92606340 
H      12.21340809      17.91875747      31.09884861 
H      11.36539993      17.05033372      29.78175238 
H      26.12037249      34.87637131      21.08307914 
H      25.61390960      35.48747655      22.69408477 
H      26.64782681      34.03303605      22.57429378 
H      29.90510506      21.07123432      12.69334340 
H      29.18344346      19.66729670      11.84875785 
H      29.18090837      21.27710927      11.06617669 
H      15.68086715      21.00507319      15.53240111 
H      16.29344152      22.29272330      14.43893247 
H      17.44660671      21.24959039      15.32183227 
H      28.28641758      15.97789348      15.13438514 
H      27.83367402      15.31399568      13.52638212 
H      28.25373045      17.05021792      13.70497322 
H      16.22467976      12.35571371      30.26848647 
H      17.76587835      12.28394707      29.36012943 
H      17.78176505      12.34525525      31.14766903 
H      30.83191136      13.88100351      31.00607296 
H      29.69848432      14.87226637      31.97823419 
H      29.55044302      13.08518970      31.96705667 
H      26.91777017      35.59881183      29.59388510 
H      26.18223010      35.70672366      31.22249466 
H      27.96475513      35.69929474      31.04595000 
H      32.99629088      28.47368841      17.21069246 
H      31.72699213      29.46496700      17.98423319 
H      33.46056913      29.86622848      18.23573886 
H      26.63110018      15.71840735      34.02775955 
H      25.16577791      15.32307829      34.97964646 
H      26.26830177      14.01270939      34.44241023 
H      12.90432995      29.76136687      21.41956365 
H      13.12623086      31.30915484      20.55105189 
H      12.02672438      30.06962320      19.88373165 
H      12.43687970      27.51146114      25.68367964 
H      11.18229546      26.41905031      26.33477924 
H      11.83436097      27.74707859      27.34849435 
H      36.08190915      20.16164764      25.75508589 
H      37.01224244      20.04827548      27.28514359 
H      36.19170558      18.60050228      26.63150041 
H      30.26196624      25.38406380      14.68736967 
H      31.94620083      24.80578549      14.89091749 
H      30.82471009      23.96282957      13.77660628 
H      19.44700796      23.86489207      35.70765019 
H      18.97231719      25.24432931      36.76167947 
H      17.72196638      24.25811445      35.94271494 
H      36.70118713      25.67348343      25.59949135 
H      37.39690822      24.27326198      26.48160579 
H      36.20810670      24.00626085      25.16501069 
H      19.72667767      20.02881713      36.94571694 
H      18.64036594      19.11117896      35.85980080 
H      20.39283954      18.77109240      35.84617687 
H      32.55491846      24.39357799      32.32053945 
H      33.27016329      25.95346051      32.86181933 
H      31.49389132      25.67933940      32.97909686 
H      25.67492157      19.60622827      11.39308887 
H      24.88748035      18.05715939      11.82004397 
H      24.24588853      19.04263655      10.46455871 
H      14.69423296      33.38310122      21.54513768 
H      15.67693206      34.37716375      20.43243217 
H      15.67951521      32.58847514      20.28104407 
H      15.35522484      26.37083309      32.93812176 
H      14.09999404      25.41556346      32.08294261 
H      15.71858284      24.70918400      32.36796934 
H      11.22212347      26.74113060      20.53898490 
H       9.78865850      26.92299000      21.60074776 
H      10.81599417      28.34097716      21.23942263 
H      22.43369222      11.90979955      17.33197347 
H      22.16171171      13.34038764      16.29992061 
H      23.21928523      12.00300693      15.71867419 
H      12.89443014      23.61580045      17.12757952 
H      12.31714280      25.29969342      16.90009437 
H      14.07471045      24.92307865      16.84060193 
H      22.33381574      11.88980007      28.11397250 
H      21.11369694      11.56463274      29.38978392 
H      20.63279663      12.39181885      27.86717035 
H      16.72791931      15.39668199      32.83763062 
H      17.66894892      16.04744805      34.21205673 
H      15.88029920      16.21835761      34.19174985 
H      13.38863972      16.08988001      21.47244162 
H      13.85272841      14.61335057      20.56159822 
H      13.82835507      14.60071917      22.35085173 
H      13.00565816      13.86651420      26.55504484 
H      12.95475675      15.41991671      27.45719508 
H      12.58930306      15.39654035      25.70646705 
H      27.69527752      32.76178020      16.13837786 
H      26.97771126      33.88964124      14.93594420 
H      27.10050492      34.35488914      16.66308286 
H      31.80873427      14.04916580      24.70554394 
H      32.14840182      13.39104191      26.33286023 
H      31.59245647      12.29793851      25.03242633 
H      18.26944100      13.03055745      17.97473181 
H      18.00916075      12.82785519      19.73855782 
H      17.69591805      14.41144342      18.97624851 
H      28.55451791      35.18700489      25.06881208 
H      28.56621002      34.94985784      26.84687740 
H      29.37511675      33.76409003      25.78932029 
H      12.02348678      23.50063605      28.74140560 
H      11.12836952      22.01877224      29.22354968 
H      12.77453911      22.33889367      29.88041016 
