699
Properties=species:S:1:pos:R:3 i=72 optimized=T E=-11290.3803234325 pbc="F F F" jobid=279_84-Ag-50_2-000008-PBE
Ag      33.18501383      25.53314874      25.84885581 
Au      32.05297287      29.36313676      21.48662854 
Au      34.59503340      28.18777884      25.42951648 
Ag      29.94410308      15.27033599      19.77920429 
Au      34.11204445      19.70078803      23.80701789 
Ag      27.30813063      23.64413330      13.34621440 
Au      18.20942387      33.20511846      28.18810444 
Au      28.79757174      30.85084062      18.12026421 
Au      24.91522446      21.22819813      23.25678735 
Ag      26.30238943      23.27564511      24.89204344 
Au      28.16031100      25.11284725      23.57209120 
Ag      23.83291064      21.67727603      29.02318188 
Ag      23.35090475      27.89679858      26.97459648 
Ag      26.86500724      23.06351637      21.96941593 
Ag      22.39892219      19.57249879      27.40736827 
Ag      27.23004632      21.17520585      26.70850023 
Ag      21.99067368      21.47720461      22.74569271 
Au      20.95353404      23.53530045      20.90872554 
Ag      27.64893081      25.33673091      26.47623867 
Au      19.96114001      24.03384530      26.71770740 
Au      25.47542936      21.03400264      20.32809957 
Ag      24.34649955      25.77997592      28.78863989 
Au      23.79507926      27.69037792      24.02973931 
Ag      26.20003424      27.65709933      27.53578786 
Au      20.93195815      21.90063933      28.45022453 
Au      22.90023677      23.72784392      27.22787016 
Au      21.44834427      21.66030208      25.60456818 
Ag      19.51766296      19.82100760      26.90386693 
Au      25.81574917      19.14915272      25.09581454 
Ag      25.33663172      23.67586208      30.69706327 
Au      22.88609835      25.32269463      19.60030080 
Ag      20.92667842      27.91403587      23.49066180 
Ag      26.64970161      27.39247627      24.65445199 
Au      22.54622002      21.32188822      19.84783001 
Au      21.90930768      25.87110978      25.34046017 
Au      27.22565473      25.55607896      29.34866688 
Ag      20.12712783      19.64400457      24.04741189 
Au      25.81812253      25.04094524      20.15720114 
Ag      23.48578902      19.19500287      21.66627040 
Au      22.43079521      24.00943169      30.13010317 
Ag      21.02873249      17.46274189      25.84893264 
Ag      21.45999613      27.69318689      20.56774809 
Au      24.29838594      27.40817607      21.19120223 
Ag      24.44771323      23.07962774      18.49233257 
Au      28.64846436      23.21798550      28.32240145 
Ag      18.58296544      21.95725722      25.12977166 
Ag      26.76860826      21.32005994      29.60769549 
Ag      22.31962897      30.04899603      25.09131077 
Ag      27.20761722      27.13874371      21.73634571 
Au      21.83364171      19.74587142      30.29151893 
Au      18.45947642      26.33969112      27.77120193 
Ag      23.28367226      21.81612759      31.89828453 
Ag      21.52124747      23.32276074      17.93708219 
Ag      17.05946621      24.29222397      26.22738911 
Ag      27.41474153      22.79660579      19.03198907 
Au      23.84842101      17.20779176      26.32113510 
Ag      23.31845749      17.48336794      29.23524992 
Au      25.16042567      29.73916430      25.66476785 
Ag      21.61516732      17.22765380      22.94804677 
Au      28.76775325      18.80835627      25.62484004 
Ag      22.80278531      29.77888460      22.16725666 
Ag      25.30428721      25.34405332      23.03976979 
Ag      20.01140835      25.55259641      19.00445099 
Au      29.55642123      27.17567649      25.25308977 
Au      19.40971997      24.29780228      29.60495019 
Au      17.98884798      22.18288356      27.98150300 
Ag      20.01710500      28.29558226      29.32852230 
Ag      23.87356023      25.96212789      31.65511158 
Ag      21.02824517      26.35964520      31.20934028 
Ag      26.34765779      18.97872905      22.16587391 
Au      24.69508364      19.57230776      30.81492702 
Ag      20.38909298      17.68757855      28.71343009 
Au      28.82266786      24.85225551      20.65791122 
Au      19.52140817      30.18493647      24.59879191 
Au      25.70425676      29.52370408      22.73970802 
Au      24.80742941      27.05161125      18.26091411 
Ag      28.38461867      20.79410475      20.84649245 
Ag      29.09672364      27.48451481      28.12403858 
Au      30.06201804      20.98599725      27.20130641 
Au      18.07580485      23.82130937      20.36616105 
Au      17.74189286      19.62185771      20.69323870 
Au      25.75366315      27.83365199      30.39751810 
Au      28.21158376      23.49400144      31.16826703 
Au      21.88895986      30.20923918      28.09873319 
Ag      21.97964046      24.23004070      33.01121571 
Au      18.58689172      27.90808776      20.09095808 
Au      16.23359655      21.89355448      21.71670433 
Ag      30.54919581      25.11336100      27.01235732 
Au      23.37260589      23.52870472      24.32360356 
Ag      19.98158635      29.98703641      21.65145033 
Au      16.58453092      20.00323986      26.46025580 
Au      26.71656718      17.07626532      26.90253229 
Au      30.03394507      25.30011617      29.85770012 
Au      17.57859536      28.38009443      25.91475693 
Au      16.15332098      26.26551477      24.32170467 
Au      28.51492250      29.15471457      23.26960126 
Au      27.73484268      26.87499010      18.90273668 
Ag      24.09315150      19.01424217      18.72270754 
Au      27.33906907      16.79422539      23.96942156 
Ag      26.92794983      18.75703496      19.26671612 
Au      26.04810171      21.46349708      32.54898505 
Au      12.49816633      18.81034903      21.85666382 
Ag      23.06916605      21.07319956      16.97254726 
Au      26.22079104      29.17126744      19.79771429 
Ag      19.95901402      19.59054530      32.46180347 
Ag      26.12509493      17.20766169      29.84039810 
Au      29.20562388      18.70910214      22.73089751 
Ag      27.66152747      29.75213440      29.18304555 
Au      15.24141158      22.42298029      27.47666339 
Ag      26.00575958      20.80220003      17.35905141 
Ag      24.79487703      23.93817907      33.49300350 
Ag      23.49721388      25.06404765      16.58372858 
Ag      17.57123210      17.87599609      28.19373988 
Ag      19.06734825      30.43671010      27.51667718 
Ag      23.39109870      29.51810598      19.18499043 
Ag      22.36763739      25.60127400      22.45590185 
Au      16.18835023      20.08152334      29.35247671 
Ag      27.52267354      19.17210313      31.42241727 
Ag      29.11762315      28.97389202      20.44345556 
Ag      16.50016545      24.44913522      29.13497294 
Ag      32.02793887      22.85224007      26.01467845 
Ag      16.65843065      21.59164375      18.87381300 
Au      24.81943292      31.53605948      20.69524590 
Ag      21.87974804      31.71313294      20.28885896 
Au      20.60084848      25.27314444      16.09124088 
Au      24.22591134      31.85064656      23.91602593 
Ag      20.44874202      29.73626842      18.70646799 
Ag      23.04741481      14.99897845      21.66860808 
Ag      30.29647040      22.58128183      19.52683231 
Ag      25.08119864      22.88114313      15.56591198 
Au      18.68451050      23.58574955      17.31677014 
Ag      28.84561403      20.52957411      18.00627947 
Au      17.70320747      22.46153949      31.09033056 
Au      17.16240898      28.62758951      28.77941489 
Ag      27.79291839      16.72575988      21.09894819 
Ag      15.54524936      26.79419818      27.15317727 
Ag      18.94419994      15.61268827      27.03598113 
Ag      19.63617753      15.42608832      24.08619414 
Ag      18.07970471      26.69916942      30.78657502 
Au      20.13110156      15.36609682      21.32776299 
Ag      27.17472970      31.49990143      24.26510181 
Au      24.93001504      15.22558314      28.23752446 
Au      23.92167878      23.29437656      21.46256992 
Au      20.16752674      21.08362362      16.39501309 
Ag      27.92248264      22.67972802      16.08365530 
Au      31.26219108      20.57252996      21.59782378 
Au      26.74411705      31.79309656      27.40980279 
Ag      25.67094028      14.89117051      25.23308234 
Au      28.64649810      16.21730959      28.80849073 
Ag      25.94888488      14.82896732      22.30156366 
Ag      32.56597559      22.64230493      23.18080647 
Ag      25.75673651      30.64675634      31.20407689 
Ag      22.93674792      30.92500734      30.69671895 
Au      24.14855360      17.07891777      31.96012032 
Au      31.26080603      17.91388224      24.71258166 
Ag      17.01576182      25.90020489      18.58357708 
Ag      31.59927458      22.95526936      28.82709976 
Ag      29.34006396      16.02202529      25.93981450 
Au      15.45494960      29.10848740      24.01607693 
Au      15.94447481      28.89492558      21.11389236 
Au      16.99428172      31.11011297      25.63685379 
Ag      29.29394224      24.80041643      17.78682132 
Ag      30.72083797      18.08052509      27.60387550 
Ag      18.44841947      17.52407464      30.93269343 
Ag      24.09730784      19.68778175      33.59771072 
Au      17.94417731      30.70893097      19.79137832 
Au      17.40813700      30.92505368      22.67510865 
Ag      14.04187256      26.99021439      22.52458737 
Au      32.57108747      20.01826359      26.34894026 
Au      24.80151012      25.57820580      25.91989015 
Au      33.00928372      26.62387298      22.99524639 
Au      24.72304097      20.02645000      14.95261580 
Ag      20.07832822      30.97529593      30.20053178 
Ag      31.77943316      27.82284208      26.99260931 
Au      24.00876263      28.66622282      32.45362682 
Ag      29.88476075      15.91981414      22.98492923 
Au      22.41889771      17.14822646      34.54075729 
Ag      13.89487281      19.56634739      27.57717644 
Au      23.99596992      27.79962234      15.62743713 
Au      15.01303077      17.57180867      30.50171692 
Ag      25.61932049      25.67897832      14.69096894 
Ag      28.73753097      30.53781884      32.06254447 
Au      22.34223820      29.96990062      16.55013743 
Ag      21.23850606      21.68399720      34.31968842 
Ag      31.20335449      28.24852233      29.99746479 
Ag      19.65578668      15.09987602      29.81955891 
Ag      22.84550449      25.53522630      13.75398900 
Au      16.25634215      14.84060427      28.08275952 
Au      25.56712062      33.57409887      29.44303817 
Au      26.64284931      14.58324165      31.11409434 
Ag      28.36604780      13.58489651      24.04946842 
Au      16.22639738      17.04710547      19.44569482 
Ag      16.13572223      17.25304989      23.31594875 
Au      20.67013269      15.41306492      17.70962570 
Ag      11.91944431      24.63266691      23.12715352 
Au      14.58471895      30.18992305      27.17590709 
Au      24.38098156      21.41506104      26.16626460 
Ag      14.96841491      19.72888156      20.34592742 
Au      25.58042516      31.19931216      18.02200957 
Au      28.42192088      20.28848504      14.49012202 
Ag      30.20422215      27.01523968      22.36661278 
Au      31.04814173      24.92242883      24.16282379 
Au      31.77180117      24.76693838      21.32740112 
Ag      20.47602600      23.77804328      23.81323179 
Au      25.21454288      14.82547150      16.06781075 
Au      30.64657729      29.82683005      25.02969045 
Ag      25.76948856      23.45952338      27.79876224 
Ag      26.63078760      28.62721545      16.86801396 
Ag      20.85879189      31.39772803      33.07546261 
Ag      17.64173228      23.97893060      23.28902468 
Ag      22.94550459      19.33672169      24.52104996 
Ag      27.76739175      20.98113464      23.81453744 
Ag      19.50391493      25.86491599      21.91251344 
Ag      25.03278685      30.63287322      15.02489173 
Ag      25.23224257      19.33222549      27.99335972 
Au      19.02457048      26.05470668      24.81560266 
Au      20.52460326      28.14529078      26.44150987 
Au      21.47052746      26.04749863      28.29457258 
Ag      29.15439719      23.07117599      25.43485746 
Ag      19.12594823      21.71650162      22.21931870 
Au      24.47975130      17.03926436      23.46746883 
Ag      22.88142905      28.14582841      29.86663159 
Au      20.64528522      19.45164805      21.16899805 
Au      20.52488824      22.18428840      31.34701764 
Au      24.79074077      30.02050740      28.63248052 
Au      17.96816109      28.16265580      22.96133201 
Au      28.13894526      18.99288759      28.54847494 
Au      19.01236243      20.07760581      29.76261270 
Au      29.71257545      22.78292681      22.55001584 
Ag      19.56687610      21.54363728      19.24881020 
Au      18.22546540      17.75664156      25.30544653 
Ag      15.72183526      22.12389261      24.62379364 
Ag      16.57545721      26.08014430      21.39699359 
Ag      26.41019444      24.84630787      17.26331120 
Au      28.02892173      29.48735513      26.20160505 
Au      17.21833724      19.86969254      23.58817482 
Ag      18.81498709      17.62198970      22.45654468 
Ag      30.67087441      20.75585187      24.37165515 
Au      21.97926024      27.42018235      17.70794783 
Au      21.11611593      19.29837826      18.33036288 
Au      22.12690844      17.17741515      19.95813074 
Au      21.97171564      15.45617134      27.66407220 
Au      19.15999384      24.44557349      32.46375981 
Au      26.60971929      25.72742251      32.36858151 
Au      14.80226404      24.20354377      22.84880585 
Au      29.71778587      20.68523589      30.05206356 
Au      23.78062025      32.01052061      26.71559624 
Ag      22.53311527      15.12646070      24.80317513 
Au      24.95465783      16.92072461      20.56253331 
Ag      28.55115552      27.74004542      31.04919263 
Ag      19.24024677      17.39794898      19.54154567 
Ag      27.64588873      31.19300569      21.42578328 
Ag      15.22811559      23.94295540      19.96737446 
Au      21.26339223      17.14425940      31.39286365 
Ag      21.09983671      32.11747969      23.17840962 
Ag      14.16114820      24.50828673      25.60069320 
Ag      22.23619893      22.96364595      14.98928405 
Ag      30.57067163      26.76125190      19.45432664 
Ag      18.30970549      19.41436879      17.77398116 
Au      22.83578657      18.27071822      16.26730145 
Ag      15.49899071      17.38899737      26.20694150 
Au      30.26705349      30.09311303      27.91443344 
Au      29.75696527      18.33265007      19.92994131 
Au      13.62211673      21.59949817      22.64656006 
Ag      30.40153501      17.71308308      30.70842245 
Au      26.66344265      15.96969808      18.57999285 
Ag      20.80592784      32.29406402      26.29192906 
Au      19.18433374      27.64951257      17.22710034 
Ag      25.75646965      17.94579771      16.64065354 
Au      14.47470878      19.46104839      24.53265832 
Au      19.01924157      33.36952670      20.95429865 
Ag      24.08425333      22.05798808      12.72825807 
Au      34.54372438      22.65102765      27.58447729 
Ag      29.05753951      32.48068560      29.24215504 
Au      19.26505341      31.54826428      16.58378666 
Au      23.56741510      15.07961011      18.85293116 
Ag      14.06235159      26.90355028      19.51194424 
Au      21.05813343      26.89696173      34.29326220 
Au      19.68300407      28.67977251      32.09794364 
S      20.65635321      15.96434710      33.51595658 
S      28.70499903      32.62357809      19.68098429 
S      23.12180251      23.06437417      35.17467839 
S      24.12508041      18.32015946      35.66088409 
S      12.43320958      18.11197571      24.10438260 
S      32.36324263      17.34640196      29.29977531 
S      31.53108079      14.76497409      21.54101087 
S      29.65339105      19.11134695      16.11162384 
S      28.36890905      22.06136678      33.15553332 
S      23.15239535      27.96142777      34.63832419 
S      13.44339528      29.98393161      25.12136546 
S      16.32312028      18.00071172      17.27398247 
S      32.73895869      23.24432300      19.68752677 
S      26.75815999      30.79987715      33.44991909 
S      22.96934338      32.45279467      32.66573579 
S      17.17881910      31.65658367      17.65595833 
S      11.31780997      22.28321038      23.03295963 
S      25.05689075      13.15907949      26.92970949 
S      33.89795557      29.15171339      27.44903623 
S      28.72050653      26.60385505      33.30769370 
S      24.11032519      24.35507335      11.97485381 
S      27.66380530      26.05191564      13.33494188 
S      19.19272114      33.29479799      30.32477789 
S      28.94419727      17.55947423      32.65636004 
S      21.25310433      34.12859366      24.66619525 
S      31.11958121      32.39141001      27.88579002 
S      29.01155411      29.21682111      16.41696881 
S      33.50864516      17.42066906      23.87527142 
S      34.91518115      21.91154010      23.62905708 
S      19.35900412      13.53269900      25.65898179 
S      20.73479983      33.73512801      19.38150184 
S      12.61246800      19.42888599      19.58842942 
S      18.74498205      30.36966882      33.61716550 
S      31.78724199      30.97208458      23.22241452 
S      35.32102373      27.27920186      23.37787398 
S      31.06860651      30.25436961      31.48620042 
S      23.23806581      13.20704458      23.37051805 
S      32.05524534      19.24771086      19.68399155 
S      28.65803821      14.84785920      17.76633286 
S      15.57654386      30.42043656      29.31059706 
S      31.56539907      21.83882470      31.10426802 
S      20.61458933      26.57845810      14.01807333 
S      17.01779545      26.99742659      16.31420686 
S      27.38960118      12.85800232      21.95003111 
S      16.94477073      33.48481213      26.21626111 
S      15.41952621      21.65501674      31.14071070 
S      21.05918222      16.67809402      15.73275650 
S      24.60606820      28.82871215      13.46012292 
S      20.05481650      21.99069000      14.13177673 
S      21.20136515      31.66102197      15.25131676 
S      23.55245357      33.91529301      28.24196849 
S      13.31617130      17.51143397      28.85963374 
S      24.18459984      33.46256018      22.06747742 
S      27.42579958      21.33061039      12.61753502 
S      16.35551318      22.96655009      16.82154776 
S      26.01312609      16.46716063      14.59092396 
S      17.30724480      14.29886785      30.12047548 
S      28.58362853      14.03173395      29.89048293 
S      27.53641904      33.65521015      30.74787797 
S      32.64198498      28.14362860      19.53921072 
S      24.89023945      14.85687883      32.66236438 
S      14.23840699      29.33794967      19.44701805 
S      13.25486414      25.90563008      27.45580328 
S      34.44317742      20.31854630      27.90870094 
S      30.37614441      23.42806223      16.05586394 
S      18.92626916      25.85508216      34.44399112 
S      35.09271126      24.92151654      27.32839698 
S      19.16065893      20.42998237      34.63610360 
S      32.29364375      26.00196980      30.38969993 
S      23.74123064      19.64113808      12.74026739 
S      17.17172332      33.34765257      22.42847228 
S      15.64636012      26.13922504      30.75900882 
S      11.58078038      27.02310443      22.89167073 
S      24.37087561      13.19288674      17.55561025 
S      13.03103684      24.73507050      19.18351292 
S      21.73616337      13.77014765      29.42476223 
S      16.43652569      17.56231806      32.38001901 
S      15.85029358      15.72334475      21.37882580 
S      15.05432543      14.97051680      26.05299020 
S      25.43554282      32.72911211      16.16785679 
S      29.76378948      13.59117150      26.03156935 
S      20.06651442      13.83449323      19.37901165 
S      27.16121110      33.54428131      25.68010854 
S      12.88189051      21.85280058      27.26390473 
C      21.22769919      14.22835794      33.37268120 
C      30.44845196      32.98481654      20.12648228 
C      22.74494872      24.13355942      36.62520966 
C      23.30008724      19.25158057      37.01142325 
C      11.03365454      19.01073395      24.87403652 
C      32.53822063      15.52592100      29.11954513 
C      31.37980982      12.93408870      21.66074142 
C      31.36835931      19.71417450      15.85234793 
C      28.22126756      23.08759868      34.66429374 
C      22.80221490      29.44862941      35.64972374 
C      13.25866802      31.68839075      24.46749339 
C      16.85086386      16.63811554      16.15852930 
C      33.30849436      24.30499448      18.30465463 
C      26.63670633      32.52726544      34.05215510 
C      22.55562224      34.14152431      32.06985262 
C      16.90094689      33.46526720      17.79804249 
C      10.52330725      22.18432471      21.37792097 
C      26.53165906      12.20410770      27.44493163 
C      34.92658680      28.38132324      28.75783990 
C      28.23882585      27.70033339      34.69783327 
C      22.95174503      24.39679902      10.54126320 
C      27.10622120      26.60118654      11.67170101 
C      17.70941797      33.23478598      31.40952908 
C      29.78829626      18.52522093      33.97371218 
C      19.79371158      35.22526753      24.48430053 
C      32.58450046      32.46252684      28.98389350 
C      29.11226936      30.10732540      14.81328051 
C      34.38777613      16.69278915      25.31236229 
C      35.75472748      21.99651041      21.99643660 
C      17.80368941      12.68778217      25.16298553 
C      21.61886141      35.23218335      19.97220080 
C      12.49249312      17.87172736      18.62122870 
C      18.84853211      29.73798112      35.33837582 
C      33.47088953      31.41211301      23.79634237 
C      35.70524996      28.68946826      22.26989371 
C      31.85250563      29.74345940      33.07066467 
C      21.82611679      12.07674742      23.05058889 
C      33.22360985      17.96066232      20.25670153 
C      28.28126366      13.05488096      17.90007841 
C      14.37545582      29.70527139      30.49891374 
C      32.94625560      20.65105990      31.30923301 
C      19.43239373      25.69397867      12.92817871 
C      15.95273556      28.48501602      16.29329040 
C      26.40426033      11.35174461      22.31998634 
C      15.29812113      33.95002212      26.88232759 
C      15.18971603      20.85993721      32.77664451 
C      21.76194143      15.48702939      14.52952662 
C      23.05588995      29.33414817      12.61244818 
C      20.29540294      20.54945969      13.02266695 
C      21.88122792      33.31094290      15.67627387 
C      23.95140727      35.34679574      27.16676737 
C      11.79412539      18.01503656      29.76394802 
C      25.69270730      34.49848762      22.18107425 
C      28.77903473      21.32058269      11.36788502 
C      16.36108953      21.85427917      15.36331495 
C      27.78720526      16.08467605      14.32801217 
C      17.52431195      12.47483032      30.00841796 
C      29.85063268      13.92301817      31.21426235 
C      28.03556996      35.42382820      30.64110194 
C      32.62106744      29.37379394      18.17532682 
C      25.82556994      15.14337864      34.21675926 
C      12.79618059      29.99037379      20.37726086 
C      12.02402769      27.07201517      26.75762185 
C      36.00950205      19.74979423      27.13898420 
C      30.83623130      24.49035736      14.62847458 
C      19.02606803      24.69847266      35.86722220 
C      36.53195119      24.81971517      26.18793849 
C      19.44704263      19.16095194      35.93243310 
C      32.43475823      25.72400177      32.19833943 
C      24.99047495      18.81943643      11.68392181 
C      15.70375085      33.59126553      21.35354029 
C      15.25263899      25.31202453      32.34888828 
C      10.61053483      27.09248801      21.32877970 
C      22.92360870      12.40173947      16.75117284 
C      12.92566453      24.51496145      17.36177082 
C      21.28972483      12.18932872      28.61403983 
C      16.25137189      15.93187104      33.19870812 
C      14.07405397      15.26365241      21.29560282 
C      13.28459058      14.70212100      26.45908577 
C      27.13200263      33.33497871      15.81586779 
C      31.48307907      13.33112221      25.43601684 
C      18.30783759      13.40120500      19.08116459 
C      28.89513840      34.13290473      25.75807883 
C      12.14254170      22.40045416      28.85109607 
H      22.25047955      14.17278283      32.98510874 
H      21.17301215      13.76559757      34.36472454 
H      20.54664629      13.71708668      32.68131030 
H      30.95269765      33.41488661      19.25412749 
H      30.43431162      33.71647909      20.94281651 
H      30.97403379      32.08408908      20.46217437 
H      23.70139723      24.40334125      37.08798758 
H      22.21878811      25.04601181      36.31907862 
H      22.14005360      23.56478705      37.33945797 
H      22.95305004      18.54244451      37.77101590 
H      24.05249757      19.92049262      37.44560873 
H      22.46080142      19.84903322      36.64009947 
H      11.15555037      18.94181548      25.96216067 
H      11.01957299      20.06292895      24.56658061 
H      10.10463399      18.51583262      24.56831084 
H      33.32698084      15.33808759      28.38095523 
H      32.83855238      15.09598148      30.08194297 
H      31.60652991      15.06253204      28.77674015 
H      30.33325857      12.61763543      21.72960465 
H      31.84388651      12.49177824      20.77208472 
H      31.92203361      12.60115913      22.55336985 
H      31.39171265      20.80837447      15.77776073 
H      31.95605459      19.39440379      16.72232253 
H      31.76874357      19.25947225      14.93986811 
H      27.94748970      22.43157166      35.49840687 
H      29.19527812      23.55521026      34.85075982 
H      27.46615449      23.87413256      34.53346863 
H      22.10181279      30.12764771      35.14530565 
H      22.39366788      29.13104415      36.61581024 
H      23.75782898      29.96518440      35.80150937 
H      12.58272613      32.24704299      25.12475437 
H      14.22817676      32.19289116      24.39977380 
H      12.81421004      31.60244831      23.46850628 
H      16.95744519      17.06532771      15.15406177 
H      17.80998579      16.20992703      16.47135524 
H      16.07486284      15.86492276      16.14837981 
H      32.45553761      24.65624976      17.71078872 
H      33.87519405      25.15564611      18.69810522 
H      33.95524605      23.68476400      17.67157500 
H      27.05403013      33.22744117      33.32125230 
H      25.57591485      32.75560517      34.21057322 
H      27.18436622      32.59730240      34.99908647 
H      21.69122827      34.13426238      31.39756568 
H      22.34208411      34.76989383      32.94191071 
H      23.43043788      34.53105121      31.53394678 
H      15.93951933      33.61292865      18.30318184 
H      17.70268106      33.94797532      18.36879516 
H      16.85015067      33.88499083      16.78702751 
H      11.10694461      22.72270575      20.62300388 
H      10.44012531      21.12862978      21.09208698 
H       9.52509152      22.62979005      21.46229647 
H      27.43345754      12.82089153      27.48874223 
H      26.33963103      11.77071280      28.43320613 
H      26.67854433      11.40275977      26.71002304 
H      35.94927505      28.76494122      28.67282272 
H      34.49572080      28.68178713      29.72100832 
H      34.92485401      27.28885437      28.68225069 
H      28.09710700      27.07677014      35.58841531 
H      29.04698473      28.41958793      34.87811949 
H      27.31850523      28.25055834      34.48095588 
H      22.88390690      25.43161231      10.18563975 
H      23.35302380      23.76327139       9.74209858 
H      21.95609043      24.04320887      10.82623830 
H      26.24766186      26.01046203      11.33301781 
H      26.81373501      27.65521899      11.73882258 
H      27.94023943      26.48569306      10.97017719 
H      18.05248267      33.05184050      32.43512008 
H      17.19736892      34.20169681      31.35323619 
H      17.02954307      32.43275684      31.10342847 
H      30.71238702      18.01031397      34.25933789 
H      30.01275879      19.54404878      33.63997670 
H      29.11484665      18.57291023      34.83771196 
H      18.85399788      34.66632856      24.46628567 
H      19.78033534      35.92419523      25.32892041 
H      19.89937379      35.78406465      23.54674931 
H      32.37111139      32.02250812      29.96420952 
H      33.40086266      31.91299420      28.49983366 
H      32.85797551      33.51853404      29.09723010 
H      30.04343437      30.68315322      14.76756939 
H      29.11466732      29.33586637      14.03296476 
H      28.25205006      30.76777161      14.65983833 
H      34.07561559      15.64359464      25.38133990 
H      35.46639150      16.74437610      25.12613986 
H      34.13327251      17.21632387      26.24028773 
H      35.06748948      21.74711047      21.18131624 
H      36.09740783      23.03081289      21.86986549 
H      36.61551043      21.31933179      21.99599570 
H      17.32080708      12.27119467      26.05450478 
H      17.10513240      13.37498763      24.67634731 
H      18.06665347      11.87794675      24.47233044 
H      22.47732021      35.38265733      19.30623697 
H      20.94572659      36.09360823      19.90643291 
H      21.97843963      35.10279039      20.99843257 
H      12.72985406      18.12297522      17.58053781 
H      13.20682718      17.12047764      18.97336944 
H      11.46952876      17.48557555      18.68825237 
H      18.75142717      30.58658267      36.02502919 
H      18.01778101      29.03878650      35.48887868 
H      19.79126457      29.21054367      35.52065409 
H      34.01253664      30.53258840      24.17098679 
H      34.01728823      31.87495027      22.96649928 
H      33.35163304      32.13538052      24.61222552 
H      35.91733054      28.27134079      21.27879196 
H      34.85668638      29.37794113      22.19071099 
H      36.58882796      29.20925379      22.65664520 
H      31.39782241      28.82473524      33.45678912 
H      32.91975564      29.57211942      32.88657719 
H      31.73747883      30.54973401      33.80408819 
H      21.76788711      11.36591020      23.88280286 
H      20.88616659      12.63762959      22.98701877 
H      22.00697467      11.54160757      22.11186952 
H      33.44370223      17.30629111      19.40448949 
H      34.14160893      18.45551369      20.59648137 
H      32.80856761      17.36218195      21.07282888 
H      27.50165613      12.80970324      17.16839838 
H      29.19905851      12.50248766      17.66693262 
H      27.93661021      12.79645544      18.90750856 
H      13.47334949      30.32686258      30.49717027 
H      14.13423887      28.66770162      30.24423028 
H      14.84888264      29.73324861      31.48788362 
H      32.70325014      19.97129101      32.13471829 
H      33.13735391      20.07201808      30.40123646 
H      33.84260263      21.23098183      31.56093970 
H      19.59330645      24.61001025      12.95545472 
H      18.41756844      25.92252853      13.27678139 
H      19.56528712      26.06748135      11.90581873 
H      16.00010237      29.03651987      17.23612599 
H      16.27668085      29.13941256      15.47577642 
H      14.92044900      28.15730538      16.11812876 
H      27.06421413      10.57736678      22.72533163 
H      25.59627972      11.57475599      23.02586856 
H      25.96783174      11.00521930      21.37545670 
H      14.62002606      34.07032077      26.02911251 
H      14.90909703      33.18057319      27.55830193 
H      15.39557735      34.90643453      27.40826716 
H      14.89677059      21.64586297      33.48327181 
H      14.39069404      20.11433954      32.69001737 
H      16.10606672      20.37046312      33.12087837 
H      21.95419671      16.03954407      13.60174267 
H      22.70471071      15.05746620      14.89582283 
H      21.02562671      14.69648296      14.34418190 
H      22.38722711      29.88829748      13.27917738 
H      23.33738758      29.96425754      11.76047606 
H      22.54579479      28.42999121      12.25914075 
H      19.31994933      20.07536932      12.86270754 
H      20.69483557      20.90507562      12.06553845 
H      20.99179082      19.82248291      13.45175678 
H      22.88578451      33.38781588      15.24535032 
H      21.21969838      34.06365021      15.23230100 
H      21.92605893      33.44832074      16.76173825 
H      23.95385590      36.25073584      27.78642163 
H      24.92492084      35.21097275      26.68183274 
H      23.15980872      35.40475377      26.40756638 
H      11.55422425      17.24900862      30.51007689 
H      11.92597858      18.98324015      30.25601338 
H      10.97871088      18.08318857      29.03391130 
H      25.88389532      34.94021967      21.19664010 
H      25.49785872      35.28387278      22.92086055 
H      26.55802625      33.90468080      22.49979139 
H      29.68969041      21.78166840      11.76128263 
H      28.98406358      20.28312858      11.08010790 
H      28.42874967      21.88259402      10.49417566 
H      15.38972236      21.34824844      15.32114068 
H      16.50886506      22.46392864      14.46470597 
H      17.16636446      21.11350424      15.43537881 
H      28.28018981      15.80739813      15.26692769 
H      27.86490888      15.26389381      13.60618513 
H      28.25792682      16.98879525      13.92212949 
H      16.53776066      11.99854581      29.98800313 
H      18.09167039      12.19810228      29.11449419 
H      18.06881782      12.15045909      30.90335883 
H      30.82089031      13.76268729      30.73078985 
H      29.87750872      14.83552012      31.82042044 
H      29.60712357      13.05859423      31.84244244 
H      28.09470974      35.75933087      29.60180241 
H      27.30426424      36.03081596      31.18676164 
H      29.01984059      35.51725379      31.11512201 
H      32.82134405      28.82850743      17.24516657 
H      31.64828360      29.87332142      18.09540018 
H      33.41412246      30.10900493      18.34974890 
H      26.60126310      15.90362673      34.07454057 
H      25.11091275      15.47503335      34.98019433 
H      26.28202541      14.19282475      34.51596322 
H      12.61968262      29.42616988      21.30056274 
H      12.99614348      31.04070511      20.61938689 
H      11.91557521      29.92775108      19.72701495 
H      12.29350055      27.40944368      25.75235319 
H      11.05825066      26.55516873      26.71071367 
H      11.94481405      27.94285378      27.41901915 
H      36.07745580      20.06897771      26.09293275 
H      36.84779670      20.15455640      27.71713976 
H      36.02069889      18.65485810      27.19571585 
H      30.10079064      25.28168550      14.45231789 
H      31.81780382      24.93393734      14.83334458 
H      30.90323215      23.86128588      13.73260746 
H      19.84546705      23.98088063      35.74607946 
H      19.16183273      25.28195350      36.78469876 
H      18.07633423      24.15202685      35.90870404 
H      36.74769085      25.83852608      25.84244772 
H      37.39140984      24.42313942      26.73963294 
H      36.31209448      24.17907209      25.32716174 
H      19.52711362      19.65828420      36.90560281 
H      18.58414778      18.48443798      35.93819046 
H      20.35567041      18.57488917      35.73917670 
H      32.53363573      24.64559400      32.37317618 
H      33.33398144      26.24371733      32.55032989 
H      31.55162157      26.10102281      32.72722420 
H      25.91057684      19.41145461      11.63251483 
H      25.20417239      17.83265272      12.11260713 
H      24.55577044      18.71020919      10.68296589 
H      14.81644099      33.51881473      21.99410949 
H      15.75333153      34.59054567      20.90640790 
H      15.65613597      32.82539746      20.57256963 
H      15.25636647      26.06281880      33.14720354 
H      14.25444955      24.86667176      32.26283454 
H      15.98269850      24.52597433      32.57692994 
H      11.07911050      26.50403318      20.53223753 
H       9.60468344      26.70739375      21.53061103 
H      10.53655505      28.13983759      21.01385324 
H      22.42085001      11.79294266      17.51199187 
H      22.21929687      13.14594154      16.36584214 
H      23.28644335      11.76235035      15.93828884 
H      12.53260875      23.50872455      17.17385007 
H      12.23730960      25.26146178      16.95100580 
H      13.91023243      24.60669165      16.89061270 
H      22.20076103      11.76991757      28.16931683 
H      20.90343928      11.50708069      29.38089520 
H      20.53876898      12.34341597      27.82907736 
H      16.30810418      15.11480271      32.47222886 
H      17.07120317      15.84048889      33.92172605 
H      15.28976854      15.91040709      33.72363414 
H      13.42780153      16.15099233      21.32307159 
H      13.89116402      14.68763921      20.38167272 
H      13.86427465      14.63664356      22.17087212 
H      13.11689124      13.62897931      26.60340775 
H      12.99958106      15.25924590      27.35779713 
H      12.69886081      15.06177984      25.60435335 
H      27.88747640      32.57335201      16.04117094 
H      27.18872799      33.62856851      14.76156348 
H      27.31218238      34.20673539      16.45584478 
H      31.73236752      14.00434826      24.60778778 
H      32.15930629      13.52229921      26.27780914 
H      31.59316733      12.28937610      25.11379440 
H      18.23233729      12.89900019      18.11013205 
H      18.00399128      12.71331035      19.87936681 
H      17.66353653      14.28738204      19.10422204 
H      29.04567897      34.82226315      24.91804019 
H      29.05868817      34.66543404      26.70218591 
H      29.60880597      33.30681436      25.68275889 
H      12.06675127      23.49527556      28.83061933 
H      11.14228715      21.95708754      28.92586293 
H      12.75728048      22.08917442      29.70309250 
