699
Properties=species:S:1:pos:R:3 i=171 optimized=T E=-11392.3722318791 pbc="F F F" jobid=279_84-Ag-59_9-000002-PBE
Ag      33.17043659      25.38763927      26.01139221 
Ag      32.04175241      29.20203633      21.60413780 
Ag      34.55473257      28.00520814      25.38676157 
Ag      29.90453744      15.02705758      19.86533680 
Au      34.12936710      19.49997970      23.88072211 
Ag      27.15779179      23.52573361      13.38291933 
Ag      18.30720569      33.11555289      28.05651842 
Au      28.40158176      30.87288186      18.17075000 
Ag      24.94342719      21.22357816      23.27882467 
Au      26.28909845      23.27750071      24.93846481 
Au      28.18706264      25.08287661      23.64531854 
Au      23.80646485      21.64055558      29.02840495 
Au      23.32035878      27.91288973      26.96072171 
Ag      26.89285868      23.06844396      22.02726119 
Ag      22.39638585      19.53426663      27.36080404 
Ag      27.21643176      21.12905137      26.74855380 
Au      22.03883906      21.48364123      22.75103524 
Au      21.02954683      23.58393900      20.88252970 
Ag      27.64231625      25.31341234      26.57356949 
Ag      19.96698901      24.01759373      26.68295047 
Au      25.52274013      21.04650044      20.43927823 
Au      24.27360169      25.72072140      28.81010080 
Ag      23.85924380      27.72931483      24.12918474 
Au      26.18975920      27.64328380      27.55885779 
Au      20.90855347      21.88304265      28.41247550 
Au      22.86477818      23.71743933      27.18634601 
Ag      21.48200130      21.68209917      25.57638986 
Au      19.57060448      19.83747614      26.84819616 
Au      25.86469819      19.10179996      25.06818016 
Ag      25.22725745      23.59074749      30.72702536 
Au      23.04502682      25.42226959      19.60932632 
Ag      21.00385184      27.93152880      23.55863697 
Ag      26.69168941      27.40280958      24.73786103 
Au      22.64460096      21.34379298      19.86573765 
Ag      21.92568017      25.85007982      25.37978964 
Ag      27.11916355      25.46315358      29.44644012 
Ag      20.12523829      19.65089790      23.99356339 
Ag      25.90447847      25.13528546      20.22388557 
Ag      23.56786843      19.17822227      21.65428565 
Ag      22.29851026      23.90800613      30.05645240 
Ag      21.04734391      17.45533265      25.77702449 
Ag      21.57163199      27.66668879      20.65106246 
Au      24.42560180      27.47952673      21.29182904 
Au      24.60930902      23.13235187      18.58419570 
Ag      28.60895372      23.16568568      28.44150955 
Ag      18.63078727      21.94681641      25.07611135 
Ag      26.68016293      21.25393730      29.61943631 
Ag      22.38715360      30.07371256      25.14165624 
Au      27.23156603      27.15463282      21.86619412 
Au      21.79625697      19.73069936      30.19782640 
Ag      18.47030851      26.33365576      27.69628547 
Ag      23.18224355      21.75498430      31.93996129 
Au      21.63813087      23.42637724      17.93787997 
Ag      17.07955795      24.26717203      26.17356812 
Au      27.52315560      22.83560400      19.12065393 
Ag      23.90234968      17.15908061      26.30501911 
Ag      23.26880349      17.43434482      29.20789407 
Ag      25.18438486      29.82125112      25.78817912 
Au      21.63315218      17.24752351      22.92346936 
Ag      28.79448165      18.78949785      25.69455243 
Ag      22.87973622      29.82921559      22.28077795 
Ag      25.33347447      25.36072759      23.11487430 
Ag      20.11890190      25.65849668      18.97738954 
Ag      29.59596467      27.21118662      25.31995213 
Ag      19.36368866      24.23723129      29.58634425 
Ag      18.03915212      22.18688774      27.95790202 
Ag      19.92352433      28.26437219      29.31874343 
Ag      23.71577424      25.83939134      31.66381157 
Au      20.88022175      26.29292672      31.17009862 
Ag      26.43536445      18.98652310      22.20130366 
Au      24.63576470      19.50484041      30.84645202 
Ag      20.37981668      17.68068347      28.65585652 
Ag      28.87059647      24.86267809      20.77466327 
Ag      19.53811141      30.17458804      24.58970293 
Ag      25.72523704      29.57760167      22.88508561 
Ag      25.04741022      27.25206495      18.31098529 
Ag      28.44050182      20.77882187      20.93796412 
Au      29.02996840      27.42433161      28.16711187 
Ag      30.08887224      20.88041182      27.31545273 
Au      18.19248879      23.83755133      20.34800751 
Ag      17.86410989      19.72770424      20.58195477 
Au      25.59590509      27.73568453      30.46174898 
Au      28.10504634      23.40052073      31.24391105 
Ag      21.81766057      30.20574664      28.08016397 
Au      21.79760437      24.08426489      32.90057663 
Au      18.70938980      27.98187112      20.07647372 
Ag      16.32189340      21.95791740      21.59510243 
Ag      30.48694199      25.13663097      27.13459888 
Ag      23.42456745      23.52381419      24.35367964 
Ag      20.07673516      30.00062229      21.67501639 
Ag      16.66518383      20.04558863      26.35368236 
Ag      26.75195824      17.00291312      26.90117236 
Ag      29.87533584      25.24632347      30.00569779 
Ag      17.55780628      28.42782580      25.86000442 
Au      16.22912811      26.35045104      24.27676370 
Au      28.54955963      29.24189899      23.46540775 
Au      27.88895521      26.92646163      19.03694948 
Ag      24.15148779      19.05513799      18.70516560 
Au      27.38729143      16.80760633      24.01391972 
Au      26.97821311      18.80008136      19.27064831 
Au      26.02785909      21.38305475      32.57283883 
Au      12.56708228      18.43044881      22.31496946 
Au      23.16523923      21.12941037      16.95345466 
Ag      26.37451614      29.25321887      19.92565266 
Au      21.11165775      19.86189652      32.87145553 
Ag      26.07931241      17.17291190      29.72086894 
Ag      29.29874599      18.66302502      22.81808980 
Ag      27.57315819      29.72063046      29.23808697 
Ag      15.29282181      22.38680772      27.40684857 
Au      26.15294444      20.82781508      17.37258690 
Au      24.60266846      23.83635889      33.49207416 
Ag      23.67569666      25.22870394      16.71414646 
Ag      17.56266518      17.97429453      28.15164592 
Ag      19.03088456      30.35686983      27.51397106 
Au      23.54400088      29.50912263      19.38857581 
Au      22.46654611      25.64512904      22.52896791 
Au      16.18098061      20.19044168      29.23404646 
Au      27.45863315      19.09995985      31.38061190 
Au      29.16781957      29.02219400      20.61541226 
Ag      16.51252421      24.48858538      29.03365404 
Au      31.89819759      22.80457703      26.15186595 
Ag      16.78957082      21.76664289      18.75412147 
Ag      24.86497815      31.57695706      20.87244548 
Ag      21.97075283      31.76826003      20.28600662 
Ag      20.79518208      25.41654309      16.18498556 
Ag      24.28706274      31.90325663      23.93854878 
Au      20.66225326      29.66474660      18.78916535 
Au      23.19714080      15.01732285      21.60982845 
Au      30.30837670      22.64391019      19.62271143 
Au      25.19696271      22.95791492      15.66121064 
Ag      18.77304849      23.61569016      17.29331799 
Ag      28.95997700      20.59969205      18.03699635 
Ag      17.53546587      22.40004809      30.93475467 
Au      17.13086622      28.62460607      28.73157469 
Au      27.89434237      16.74997056      21.12946190 
Au      15.61073047      26.69919499      27.03637344 
Au      18.90345252      15.74056681      27.00080226 
Ag      19.62718574      15.45723364      23.99722072 
Ag      18.00273837      26.60370597      30.76663741 
Au      20.26627871      15.42405133      21.20424796 
Au      27.22660173      31.59356339      24.38071400 
Ag      24.86076377      15.09060831      28.20260679 
Au      23.98882093      23.33765341      21.49347436 
Au      20.18916799      21.13992011      16.35774350 
Ag      28.04441050      22.75309229      16.11175638 
Au      31.26417787      20.43205017      21.72868489 
Ag      26.70055189      31.82854894      27.48250961 
Ag      25.66412061      14.89579773      25.21925289 
Ag      28.67281821      16.20481895      28.87711757 
Ag      26.05156622      14.81423381      22.30069939 
Ag      32.58173554      22.58524120      23.32193274 
Au      25.64594526      30.48265910      31.27978143 
Ag      22.82584568      30.81549918      30.80413185 
Au      24.19413260      16.96807918      31.90216928 
Ag      31.33211375      17.89209458      24.78810832 
Au      17.22306601      26.00037610      18.59467929 
Ag      31.63647418      23.10616011      28.97577364 
Ag      29.37713502      16.02629974      25.96766763 
Ag      15.60176265      29.22053121      23.90779285 
Ag      16.12374254      28.99356547      21.00072870 
Au      17.07366321      31.22475338      25.54200219 
Ag      29.48855591      24.89662452      17.84693278 
Ag      30.74235103      18.03935010      27.65280318 
Ag      18.49571937      17.43102535      30.86720233 
Ag      24.04321613      19.61764547      33.62968914 
Ag      18.13152030      30.78460543      19.76885369 
Ag      17.53010996      31.02727179      22.63376281 
Ag      14.22965888      27.07452538      22.35437382 
Ag      32.67099953      20.00664290      26.40595307 
Ag      24.79872952      25.58358636      25.97320684 
Ag      32.87339378      26.71198119      23.25499864 
Ag      24.92262299      20.11610315      14.90813419 
Ag      19.95412621      30.92503914      30.19832941 
Au      31.77724543      27.73727305      27.13853947 
Au      23.73445174      28.52799505      32.52398965 
Ag      29.84711573      15.82833296      23.02430755 
Ag      22.30932105      17.28539835      34.33437239 
Ag      13.90748848      19.68135063      27.43920069 
Ag      24.15653086      27.97571378      15.65899779 
Ag      15.20245039      17.62601309      30.27941501 
Ag      25.63527686      25.70962624      14.73687579 
Au      29.11848609      30.41054196      32.07679529 
Ag      22.67036954      30.20299334      16.82581595 
Au      22.21558212      22.00048995      35.20140717 
Ag      31.22157268      27.93781192      30.10951480 
Ag      19.76891392      15.01927025      29.73860436 
Ag      22.74668193      25.88610612      13.99368573 
Ag      16.29915873      15.07014495      28.23092546 
Au      25.51979158      33.76108345      29.33528373 
Ag      26.37145070      14.55879127      30.98247535 
Ag      28.51688662      13.50977335      24.31820453 
Ag      16.49194047      17.00644556      19.97082676 
Ag      16.12772491      17.16350474      23.28679288 
Ag      20.96681091      15.54360749      17.67924320 
Au      11.84724705      24.50845593      22.93820397 
Ag      14.68267963      29.87086527      26.76376626 
Au      24.35077092      21.36798213      26.11996540 
Ag      15.16752144      19.33990468      21.34742764 
Ag      25.37569714      31.12363716      18.00413096 
Au      28.64462494      20.27393642      14.64059502 
Ag      30.12028118      27.01240750      22.49835583 
Au      31.01914860      24.86799284      24.24653006 
Ag      31.72923532      24.73968604      21.47049007 
Ag      20.52112071      23.80724560      23.79546916 
Au      25.27998378      14.78847896      16.10512698 
Ag      30.77777547      29.79307033      25.14291436 
Ag      25.73641752      23.41609877      27.82779487 
Ag      27.16373956      27.57150546      16.35735923 
Ag      20.71835715      31.36099852      33.05432200 
Ag      17.70071343      24.02569334      23.28278609 
Ag      22.97752272      19.31648817      24.49268918 
Ag      27.81120019      20.95235627      23.86072065 
Ag      19.61991977      25.88565705      21.94506162 
Ag      24.92120941      31.03354916      15.02162052 
Au      25.20197394      19.25765602      27.92726167 
Ag      19.06630601      26.10253648      24.83916030 
Ag      20.48927686      28.13121006      26.43476932 
Au      21.37322447      25.99895324      28.24387541 
Au      29.08746891      23.00911305      25.56756623 
Ag      19.17914704      21.74757368      22.17894843 
Au      24.52047594      17.01488050      23.46277454 
Au      22.77323184      28.12596655      29.85119960 
Au      20.72524502      19.46360862      21.13036786 
Au      20.30181982      22.12452335      31.28496004 
Au      24.71208082      30.05891991      28.67566856 
Ag      18.09949730      28.25533121      22.95918137 
Au      28.14545493      18.96580411      28.52763924 
Ag      18.98035146      20.05306676      29.75767838 
Ag      29.76870654      22.74410364      22.63749696 
Ag      19.68619999      21.60089733      19.21442074 
Au      18.17562637      17.82955219      25.21602075 
Au      15.81887049      22.13570522      24.53093723 
Au      16.75889512      26.17960823      21.42229397 
Au      26.57680564      24.96247937      17.35403530 
Ag      28.04361558      29.52477447      26.28995527 
Au      17.17228878      19.84028886      23.40680324 
Ag      18.80162737      17.63463540      22.33258517 
Ag      30.67718757      20.69227805      24.47938115 
Ag      22.19982382      27.47128855      17.75405535 
Au      21.22502131      19.33511850      18.28961067 
Ag      22.25681930      17.18639529      19.90536683 
Au      21.97303443      15.45289658      27.54714223 
Ag      19.00915421      24.36612763      32.48480019 
Ag      26.49374696      25.65004112      32.38816028 
Au      14.84394041      24.26538755      22.80544166 
Au      29.53601395      20.83468814      30.11275682 
Ag      23.69035780      32.06234628      26.83295870 
Ag      22.53866121      15.11047854      24.75349146 
Au      25.04587883      16.92656128      20.51374677 
Au      28.43214922      27.66401860      31.03329540 
Ag      19.39810676      17.47605626      19.49068509 
Au      27.72408536      31.27715409      21.63296999 
Au      15.39656125      24.09698060      19.91242249 
Au      21.25419811      17.23039887      31.39708684 
Ag      21.24061683      32.10325991      23.16841460 
Ag      14.07724377      24.32312635      25.54641702 
Ag      22.41205706      23.11808135      15.02914181 
Au      30.67884209      26.81301509      19.60794453 
Au      18.39316449      19.44462064      17.71917952 
Au      22.92900699      18.36639324      16.22035144 
Ag      15.48274475      17.39752863      26.18105704 
Ag      30.23476440      29.96987724      28.05818667 
Ag      29.80777393      18.37305868      19.85626819 
Au      13.71288146      21.59925605      22.69420820 
Au      30.49563738      17.28976036      30.92604514 
Au      26.86316560      15.98273098      18.54941137 
Au      20.72941317      32.20557498      26.29906894 
Ag      19.30851021      27.88063922      17.01456924 
Au      25.96282761      18.06502280      16.63968321 
Ag      14.47583798      19.46184655      24.46739157 
Au      19.02756509      33.44542459      20.72320219 
Ag      24.20189406      22.34219168      12.83811480 
Ag      34.48247416      22.65059764      27.48926708 
Au      29.11489807      32.76931558      29.08408191 
Au      19.29879270      31.05034030      16.49532319 
Ag      23.85550279      15.02331999      18.83078095 
Au      13.70323116      27.19580577      19.47503665 
Ag      20.89324667      26.71100732      34.17035663 
Au      19.55714147      28.54233740      32.15165456 
S      20.40467156      16.08594135      33.42046588 
S      28.25864806      32.69385586      19.70120066 
S      24.24840605      23.03229011      35.81423741 
S      24.20838696      18.12333178      35.59052215 
S      12.34986155      17.99727179      24.61489847 
S      32.27058961      17.07323111      29.39592362 
S      31.53593320      14.68150216      21.62509057 
S      29.94326063      19.15770251      16.26483834 
S      28.29730297      22.04757197      33.32193780 
S      23.00198281      27.86307517      34.72132894 
S      13.40436876      30.07235287      24.68362969 
S      16.41515027      17.99275036      17.70401594 
S      32.71217136      23.07568887      19.87209502 
S      27.06805719      30.66860408      33.23026740 
S      22.83303731      32.43441409      32.70116729 
S      17.20048250      31.36990487      17.53387788 
S      11.35816078      22.21221400      22.65730127 
S      25.05361405      13.05151626      26.74014341 
S      33.82793617      29.10812309      27.39163716 
S      28.73434582      26.48210796      33.18696403 
S      23.83950259      24.65755285      12.12661543 
S      27.62598204      25.94127835      13.29126192 
S      19.07650174      33.23568396      30.34815536 
S      28.84029015      17.47259295      32.60103001 
S      21.15048286      34.05979979      24.74347706 
S      30.91224529      32.30514552      27.62315740 
S      28.87092737      29.38706888      16.39248425 
S      33.63387707      17.20631848      24.09784704 
S      34.90195216      21.71023147      23.59591130 
S      19.29683432      13.65103421      25.68900973 
S      20.80990210      33.69659064      19.20188673 
S      12.97506521      18.99295146      20.06252464 
S      18.61471590      30.28271482      33.54120653 
S      31.90392890      30.96749280      23.26615765 
S      35.31168291      27.10977749      23.28723695 
S      31.32274484      30.16657477      31.25320383 
S      23.07058690      13.18073870      23.21049360 
S      32.17118852      19.15079312      19.82595706 
S      28.68235514      14.54664157      17.82811302 
S      15.29167468      30.20574654      29.09760835 
S      31.55909206      21.73003993      31.09986185 
S      20.63400803      27.21764321      14.47679119 
S      17.04829454      26.90438712      16.36054787 
S      27.42039820      12.75495529      22.30286305 
S      16.71079317      33.53813687      26.26902862 
S      15.11912805      21.76999631      30.86449350 
S      21.28575449      16.70510994      15.56365548 
S      24.87860516      29.14772845      13.54976251 
S      20.12702417      22.39122652      14.26363915 
S      21.19278740      31.17575125      15.08317148 
S      23.49405671      34.14540818      28.21810831 
S      13.31674835      17.65841566      28.76513478 
S      24.13994578      33.61314308      22.09771781 
S      27.57249812      21.20121678      12.74636760 
S      16.44618984      22.95763743      16.58885225 
S      26.07183851      16.53073723      14.72671045 
S      17.42549477      14.34866754      30.25096448 
S      28.32313774      13.91058485      29.74598248 
S      27.52242755      33.65987134      30.58737783 
S      32.86822063      27.92849916      19.67537080 
S      24.71019083      14.75148343      32.73172469 
S      14.12544872      29.50961044      19.57419632 
S      13.35147100      25.87964215      27.43091381 
S      34.61572413      20.27465638      27.93056688 
S      30.45770020      23.49176264      16.05764075 
S      18.66473184      25.74445966      34.53208602 
S      35.30473796      24.90849676      27.16848560 
S      20.15674870      20.87642874      34.86966883 
S      32.33184615      25.64605331      30.25502374 
S      23.75519778      19.93377036      12.75283120 
S      17.15697977      33.46111044      22.15225060 
S      15.59289042      26.06516203      30.75585734 
S      11.89878874      26.84338971      23.20408578 
S      24.40172875      13.05091028      17.43062367 
S      13.19863546      24.90422170      19.18599603 
S      21.96636788      13.83708541      29.40034123 
S      16.52669766      17.73160024      32.29699176 
S      15.98062218      15.30231191      21.66385092 
S      14.96516761      14.98710888      26.20515530 
S      25.15714911      32.99579485      16.39213326 
S      30.00471518      13.64364317      26.23729447 
S      20.23237609      13.86764184      19.29746626 
S      26.90943342      33.62188491      25.66334752 
S      12.89400819      21.93655859      26.86509930 
C      20.94184506      14.33318485      33.36499356 
C      30.01376868      33.15679836      19.99167680 
C      23.74976399      24.50884538      36.78450481 
C      23.62169564      19.00937755      37.08772676 
C      10.94015365      19.04248718      25.15489982 
C      32.44743412      15.27239654      29.08193415 
C      31.43368243      12.85466527      21.82917991 
C      31.63206565      19.82607753      15.99932860 
C      28.09975490      23.13037515      34.78187137 
C      22.57622161      29.38152519      35.65600662 
C      13.37568864      31.87695195      24.33439135 
C      16.84777810      16.64088547      16.53474008 
C      33.29990424      24.03445787      18.42405403 
C      26.98322784      32.36973356      33.89941631 
C      22.42500105      34.10490339      32.05392844 
C      16.99213304      33.19015699      17.39662127 
C      10.85313393      22.09761904      20.89583450 
C      26.52322521      12.02547180      27.13205187 
C      34.82258307      28.35990305      28.73954806 
C      28.50499742      27.63471818      34.59509842 
C      22.52572315      24.54493876      10.84004511 
C      27.04265370      26.59541919      11.67780280 
C      17.49129819      33.11675257      31.27744662 
C      29.63784865      18.42629779      33.95196273 
C      19.60969871      35.02411054      24.52026142 
C      32.44041359      32.59467798      28.59984561 
C      28.72049168      30.37846466      14.85621777 
C      34.50460513      16.65339012      25.61774126 
C      35.67611900      21.72000633      21.93016581 
C      17.72095465      12.79415932      25.30092194 
C      21.66211794      35.24445253      19.70164029 
C      12.88897591      17.45470963      19.06604040 
C      18.65880507      29.64539078      35.26338437 
C      33.61229207      31.41389386      23.77062104 
C      35.73354589      28.53229370      22.20271721 
C      32.31999485      29.79571617      32.75500061 
C      21.56683977      12.21152970      22.81623858 
C      33.22673422      17.79711892      20.46387646 
C      28.12069772      12.82408088      18.13763849 
C      14.00382895      29.33303471      30.07118271 
C      32.81620938      20.39989663      31.07850901 
C      19.31632890      26.66190405      13.31919370 
C      15.75881460      28.20393059      16.38739734 
C      26.35525729      11.34919843      22.82025146 
C      15.12932111      33.68686462      27.19473948 
C      14.65328069      20.91519657      32.42157134 
C      22.03392808      15.53777986      14.36505711 
C      23.39705852      29.38715478      12.48974819 
C      20.22621264      21.16324250      12.90174298 
C      21.52681535      32.98487736      15.11500989 
C      23.87211407      35.52109123      27.06480031 
C      11.90534103      18.22931206      29.80201396 
C      25.60693930      34.71769744      22.15750341 
C      28.94217330      21.30533099      11.52007469 
C      16.53770778      21.72567425      15.23478706 
C      27.84921695      16.17879213      14.44801958 
C      17.49107040      12.51452222      30.09162267 
C      29.55672126      13.53398479      31.05620466 
C      28.01165342      35.43167013      30.68758141 
C      32.78108998      29.12292185      18.27876695 
C      25.76767194      15.00928914      34.21458226 
C      12.82305088      30.24895402      20.63571329 
C      12.14391561      27.13792468      26.87126263 
C      36.17529809      19.80513890      27.07773601 
C      30.85496788      24.51863811      14.58845829 
C      18.79343460      24.62614192      35.98602854 
C      36.57856126      24.64246378      25.86628197 
C      20.00832281      19.63097917      36.20871859 
C      32.62616024      25.27815188      32.03298479 
C      24.85494572      19.10418017      11.54293748 
C      15.69231640      33.56798517      21.04867821 
C      15.25372169      25.26373149      32.37191774 
C      10.69634532      27.43471758      21.95001401 
C      22.89860701      12.43726592      16.57402612 
C      13.17885655      24.67715353      17.36444342 
C      21.65627984      12.23578423      28.56244623 
C      16.29821446      16.17267585      33.24069226 
C      14.20296157      14.84586864      21.55974029 
C      13.20716203      14.71629028      26.65717880 
C      26.83128968      33.67457995      16.04863510 
C      31.69084396      13.41697403      25.54023416 
C      18.47222213      13.50627680      18.91589662 
C      28.51408263      34.51172453      25.65246765 
C      11.97871223      22.47952433      28.36276107 
H      21.99646067      14.24194530      33.08181660 
H      20.78624995      13.90588588      34.36275457 
H      20.31663554      13.80636130      32.63353744 
H      30.42789855      33.55328464      19.05785714 
H      30.02272494      33.93677672      20.76234882 
H      30.60134336      32.29926286      20.33722035 
H      24.65966910      25.08359579      36.99444841 
H      23.04827494      25.13812162      36.22646123 
H      23.29781863      24.17448346      37.72494095 
H      23.07827321      18.31481429      37.73745402 
H      24.50947119      19.38270283      37.61228981 
H      22.98495875      19.86544187      36.82936091 
H      10.95580082      19.06515586      26.25174787 
H      11.02272546      20.06386672      24.76956772 
H      10.01012518      18.58051250      24.80526912 
H      33.26922581      15.15627994      28.36472039 
H      32.71177015      14.77022641      30.01883133 
H      31.53180617      14.83831861      28.66343037 
H      30.40044239      12.51513081      21.96175350 
H      31.86643240      12.38512247      20.93861677 
H      32.02685834      12.57453069      22.70718690 
H      31.60772911      20.91810140      15.90181474 
H      32.22810292      19.54598475      16.87729220 
H      32.05385491      19.37022329      15.09687565 
H      27.89303294      22.49721893      35.65270258 
H      29.03728548      23.68069270      34.92399502 
H      27.27433411      23.83946862      34.63941660 
H      21.88053259      30.02235963      35.09664385 
H      22.12472140      29.08423349      36.60993382 
H      23.49979555      29.94025675      35.84595932 
H      12.71512882      32.36880425      25.05775200 
H      14.37837567      32.31586188      24.38710459 
H      12.96912138      32.01776342      23.32566816 
H      16.81746135      17.04813650      15.51739924 
H      17.84777082      16.23727049      16.73041787 
H      16.09897838      15.84670161      16.63505680 
H      32.76818369      24.98945492      18.33869880 
H      34.37116682      24.21886704      18.56916542 
H      33.13394237      23.43991638      17.51864071 
H      27.25656519      33.10470763      33.13565213 
H      25.94931115      32.53725472      34.22557477 
H      27.66465528      32.43199072      34.75571167 
H      21.51541112      34.08975188      31.44344751 
H      22.28336205      34.77404600      32.91037326 
H      23.26878528      34.45119720      31.44435695 
H      16.05247124      33.44844351      17.89951433 
H      17.82210668      33.72577390      17.87049540 
H      16.92215780      33.46045327      16.33730523 
H      11.51246283      22.69535033      20.25775334 
H      10.90032339      21.04234490      20.60097397 
H       9.82406366      22.46756533      20.81987145 
H      27.38746692      12.62718031      27.42775280 
H      26.25690352      11.35956131      27.96149444 
H      26.77676573      11.42516077      26.24961027 
H      35.79778167      28.86082614      28.74893679 
H      34.30381192      28.53659097      29.68954120 
H      34.95848269      27.28333124      28.58663808 
H      28.58933310      27.04222130      35.51459988 
H      29.29064272      28.39961220      34.57336652 
H      27.52815857      28.12588828      34.55921557 
H      22.29363566      25.55652495      10.48714734 
H      22.90529961      23.94668753      10.00376053 
H      21.61926041      24.08080363      11.24194899 
H      26.15621909      26.05210438      11.33286462 
H      26.78879254      27.65383353      11.81115119 
H      27.85656380      26.49080282      10.95122565 
H      17.72062501      32.90897982      32.32930371 
H      16.97384904      34.07932069      31.19554098 
H      16.85270418      32.31882287      30.88307515 
H      30.44790588      17.82221779      34.37540679 
H      30.02125759      19.38508462      33.58796116 
H      28.86984023      18.60906038      34.71326012 
H      18.73301181      34.38140480      24.39868351 
H      19.46835309      35.66822045      25.39591870 
H      19.73017922      35.64081671      23.62107917 
H      32.34124103      32.19067872      29.61295605 
H      33.25726202      32.07841380      28.08082824 
H      32.63255985      33.67274929      28.63376371 
H      29.45740627      31.18890209      14.87218069 
H      28.93415732      29.70329165      14.01859916 
H      27.70968974      30.78913875      14.73507923 
H      34.23397794      15.60229295      25.77548727 
H      35.58564625      16.72971167      25.45763570 
H      34.21082817      17.24513376      26.49236922 
H      34.95714542      21.42959987      21.15669149 
H      36.01187656      22.74699577      21.74136189 
H      36.53773314      21.04392367      21.92853715 
H      17.29492119      12.38589244      26.22496609 
H      16.99303223      13.46910802      24.84060587 
H      17.95620256      11.97485898      24.61061938 
H      22.49127743      35.38669133      18.99749442 
H      20.96464011      36.08516492      19.62499594 
H      22.06481658      35.16384395      20.71712393 
H      13.22105431      17.71484195      18.05390634 
H      13.54447425      16.67365443      19.46472438 
H      11.85313210      17.09900615      19.04147485 
H      18.35705678      30.46405397      35.92740712 
H      17.94766955      28.81490651      35.33856332 
H      19.65444518      29.28767240      35.54256807 
H      34.15286864      30.55525779      24.19083339 
H      34.15596758      31.80440051      22.90283901 
H      33.54193143      32.19712316      24.53482571 
H      35.78869824      28.15882272      21.17383389 
H      34.97715740      29.32239078      22.24941820 
H      36.70761623      28.92934466      22.50940257 
H      31.93302429      28.91713487      33.28053596 
H      33.35048035      29.60500145      32.43193913 
H      32.29990611      30.66711765      33.41907141 
H      21.48091182      11.42550715      23.57636563 
H      20.67014128      12.84272535      22.84047705 
H      21.67793458      11.76421504      21.82249064 
H      33.40737219      17.09312925      19.64274811 
H      34.17777770      18.22546143      20.80251725 
H      32.75702838      17.26169905      21.29399331 
H      27.32328489      12.58342624      17.42462732 
H      28.98046643      12.16369116      17.97367995 
H      27.75121305      12.70150500      19.16167662 
H      13.07530273      29.91172403      30.00590637 
H      13.84733511      28.31379980      29.70186076 
H      14.34137539      29.28355323      31.11292782 
H      32.55047621      19.65057809      31.83391986 
H      32.89308216      19.91942729      30.09904103 
H      33.78441652      20.85146777      31.32633283 
H      19.42528709      25.59744937      13.08723133 
H      18.34294290      26.83100396      13.79595099 
H      19.39414082      27.25758670      12.40248940 
H      15.89553735      28.90444676      17.21563499 
H      15.82718657      28.75722393      15.44267989 
H      14.77442919      27.72719966      16.46840111 
H      26.99583514      10.50867872      23.10912687 
H      25.69788621      11.63071394      23.64999059 
H      25.73686711      11.06406730      21.96121378 
H      14.30495307      33.71399362      26.47303180 
H      14.98405737      32.85220472      27.88881310 
H      15.15589441      34.63164520      27.75026979 
H      14.46587752      21.68546427      33.17942121 
H      13.73474200      20.34171859      32.24901674 
H      15.44065081      20.23513488      32.76227069 
H      22.24742545      16.09595604      13.44573935 
H      22.96801735      15.10513368      14.75070714 
H      21.30893187      14.74344907      14.15192940 
H      22.51797649      29.66709966      13.08028359 
H      23.61774456      30.16931611      11.75476335 
H      23.20226897      28.44038865      11.97100643 
H      19.25905192      20.65214783      12.83119942 
H      20.42338984      21.70414938      11.96821498 
H      21.02513316      20.43401982      13.06942079 
H      22.52274817      33.15109317      14.68531400 
H      20.76790284      33.48848987      14.50607551 
H      21.50478016      33.37596411      16.13769783 
H      23.93541326      36.45459725      27.63438381 
H      24.80884970      35.33593103      26.52695050 
H      23.04119294      35.56991054      26.34878234 
H      11.69045218      17.46315938      30.55590342 
H      12.12962019      19.17907445      30.29769944 
H      11.02899396      18.35509742      29.15500189 
H      25.75772596      35.15915053      21.16610922 
H      25.40793957      35.50639718      22.89219969 
H      26.50010163      34.15680918      22.45591669 
H      29.78549713      21.88137020      11.91211847 
H      29.26993008      20.28983583      11.27049564 
H      28.54652600      21.79539276      10.62273716 
H      15.55272297      21.25828064      15.12193790 
H      16.81224079      22.24744956      14.31049704 
H      17.28953806      20.95479560      15.44867696 
H      28.33268126      15.81622716      15.36191433 
H      27.91924117      15.41960273      13.66027666 
H      28.32365045      17.11171765      14.11825088 
H      16.46947082      12.12038514      30.14135901 
H      17.95620723      12.21289632      29.14769172 
H      18.07542046      12.11465988      30.92869123 
H      30.49482253      13.25794925      30.56004377 
H      29.73006406      14.39775944      31.70729346 
H      29.19804536      12.68378156      31.64697975 
H      28.06619212      35.88878948      29.69559958 
H      27.26327228      35.95214919      31.29647360 
H      28.99052343      35.48358807      31.17779582 
H      32.97074871      28.57462744      17.34861612 
H      31.79800146      29.60244151      18.21958627 
H      33.55989538      29.88052846      18.42372191 
H      26.60250785      15.68394780      33.99703520 
H      25.15347941      15.43467054      35.01704261 
H      26.15291011      14.02803463      34.51603294 
H      12.84517337      29.83946178      21.65246563 
H      13.02121030      31.32723603      20.67196184 
H      11.84385483      30.07583475      20.17665317 
H      12.36580059      27.51161856      25.86811278 
H      11.15583093      26.66125126      26.86029400 
H      12.14139463      27.97040697      27.58557832 
H      36.16361115      20.09912756      26.02220713 
H      37.01393534      20.28897205      27.59085443 
H      36.28737078      18.71698969      27.15100234 
H      30.07869469      25.26264711      14.38440355 
H      31.81102942      25.02299817      14.77160124 
H      30.95504369      23.85953402      13.71768783 
H      19.61565731      23.91115664      35.87230897 
H      18.94944714      25.23214676      36.88568565 
H      17.84961655      24.07589357      36.07825933 
H      36.80828840      25.60547507      25.39474303 
H      37.47699204      24.24165673      26.34947236 
H      36.22930793      23.93965344      25.10193822 
H      19.90542120      20.15212269      37.16737634 
H      19.10178719      19.04941668      36.00241759 
H      20.87270018      18.95806255      36.23344611 
H      32.65336881      24.18911777      32.16288547 
H      33.59151928      25.71242861      32.31759886 
H      31.82624633      25.69677873      32.65419779 
H      25.84865723      19.56443922      11.53511744 
H      24.94244479      18.04940271      11.82915276 
H      24.39566970      19.18271571      10.55069997 
H      14.80556647      33.54294347      21.69385158 
H      15.71880961      34.51767878      20.50339608 
H      15.65627107      32.72939937      20.34421510 
H      15.69341159      25.85592618      33.18186641 
H      14.16415581      25.21893152      32.48972333 
H      15.66114269      24.24558056      32.39719095 
H      11.00895583      27.16182496      20.93572669 
H       9.71203524      27.00785996      22.17065114 
H      10.64882293      28.52644389      22.04150912 
H      22.36984176      11.78569459      17.27960143 
H      22.23355087      13.25635037      16.27995413 
H      23.20149818      11.86398966      15.69094036 
H      13.04678388      23.60552858      17.17321393 
H      12.33211592      25.23905680      16.95488208 
H      14.12015284      25.00376105      16.90998165 
H      22.57435964      11.94238023      28.03725848 
H      21.40980161      11.49335686      29.33094177 
H      20.83400165      12.32192729      27.84207913 
H      16.32179733      15.30238696      32.57662708 
H      17.11669364      16.09729327      33.96629102 
H      15.33749173      16.22397909      33.76531286 
H      13.55194641      15.72739967      21.62409769 
H      14.01830540      14.30971128      20.62199175 
H      13.98596455      14.18389643      22.40687024 
H      13.07254938      13.65216285      26.88135530 
H      12.92156878      15.32690492      27.52004216 
H      12.59047367      14.99883964      25.79612554 
H      27.60965699      32.91409187      16.17696449 
H      26.85653977      34.07295868      15.02853777 
H      27.00932985      34.48413121      16.76617030 
H      31.88305197      14.09586570      24.70143531 
H      32.41126546      13.61544955      26.34281271 
H      31.80055718      12.37775666      25.21007707 
H      18.42182049      13.01947576      17.93526357 
H      18.09209537      12.82661055      19.68748873 
H      17.86166745      14.41651922      18.91651168 
H      28.61831942      35.02938029      24.69192183 
H      28.49577271      35.24584551      26.46707897 
H      29.35725565      33.83060272      25.80327861 
H      11.86994490      23.57044008      28.32132461 
H      10.99142151      22.00356424      28.35777520 
H      12.52587924      22.20843182      29.27336868 
