699
Properties=species:S:1:pos:R:3 i=77 optimized=T E=-11184.5860804957 pbc="F F F" jobid=279_84-Ag-40_1-000002-PBE
Ag      33.12154085      25.44509913      25.97912808 
Ag      32.18008213      29.23134126      21.35931049 
Ag      34.36855994      28.15733615      25.41477680 
Au      29.92555051      14.93778821      19.66815079 
Au      34.16487591      19.61553462      23.85587670 
Ag      26.72445058      23.20917593      13.15838476 
Ag      18.15860436      33.13173211      28.09918280 
Au      28.61517301      30.64884073      18.06940818 
Ag      24.93773518      21.19169713      23.26738773 
Au      26.27319373      23.20502549      24.97803317 
Ag      28.16187570      25.11153748      23.69056035 
Au      23.75705548      21.60626517      28.99780236 
Ag      23.33225221      27.86859821      26.98139123 
Au      26.91766668      23.06265187      22.05136446 
Au      22.33568273      19.49702269      27.38265423 
Ag      27.19426625      21.10674628      26.76851911 
Ag      22.06543848      21.46540849      22.71790515 
Ag      21.05933952      23.53366309      20.86084068 
Au      27.62752986      25.29461397      26.66695143 
Au      19.96050424      24.00034452      26.70299319 
Au      25.51932205      21.02544087      20.38108010 
Au      24.28797079      25.76020218      28.80652223 
Ag      23.84519777      27.67872366      24.07902522 
Ag      26.18960082      27.64531865      27.69260264 
Au      20.84268143      21.85520784      28.41038497 
Ag      22.84376601      23.70492408      27.19924230 
Ag      21.47285868      21.65775437      25.58295354 
Ag      19.48676894      19.77629009      26.86225304 
Ag      25.85909352      19.05545317      25.10443996 
Au      25.24907789      23.55890102      30.77099149 
Ag      23.02887125      25.36865275      19.58411137 
Au      20.98308532      27.89125737      23.51317149 
Au      26.63212233      27.41654420      24.75275466 
Au      22.60920965      21.31953174      19.82112815 
Au      21.92645664      25.82403547      25.36929949 
Ag      27.16375558      25.44226511      29.55627737 
Au      20.18088933      19.60532389      23.98844651 
Au      25.89278052      25.08089916      20.23123642 
Au      23.55364371      19.17096161      21.66465785 
Au      22.28972971      23.89792735      30.06133686 
Au      21.04276215      17.37154460      25.78179531 
Ag      21.57898418      27.65758092      20.60095145 
Au      24.40275627      27.43332367      21.24632460 
Au      24.52716761      23.07466682      18.52758404 
Ag      28.62661616      23.13471132      28.51322853 
Au      18.63145784      21.93506714      25.10663868 
Au      26.66630104      21.25714294      29.65123258 
Au      22.36719844      30.01652156      25.14197677 
Ag      27.24083109      27.20541534      21.85915565 
Au      21.70981643      19.68597051      30.19104126 
Au      18.44807310      26.34825206      27.68111267 
Au      23.12638887      21.72159384      31.92112039 
Au      21.65003601      23.35805919      17.92481796 
Au      17.04692164      24.24653237      26.17127498 
Ag      27.47726964      22.82263732      19.08445775 
Au      23.89938152      17.12714287      26.31265936 
Ag      23.24667711      17.35487152      29.21581762 
Au      25.18486453      29.76697170      25.76118441 
Ag      21.66551734      17.19511169      22.87494847 
Au      28.77286897      18.76098271      25.67992380 
Au      22.86106979      29.77868859      22.23398814 
Au      25.34330160      25.34447888      23.09390776 
Au      20.12644849      25.64686916      19.00177362 
Au      29.49310145      27.14588998      25.45025001 
Ag      19.37690550      24.25820213      29.55459485 
Ag      17.95496079      22.13984231      27.96777648 
Au      19.95820259      28.31970628      29.30829166 
Au      23.73643191      25.83143224      31.65938253 
Ag      20.93953973      26.31217226      31.15237888 
Ag      26.42893775      18.93678268      22.16763885 
Au      24.56885672      19.44089055      30.87783531 
Au      20.33921524      17.60384005      28.67644883 
Ag      28.88592018      24.87525451      20.80552777 
Au      19.53609942      30.17687115      24.58853284 
Ag      25.75590310      29.59202307      22.82317758 
Au      24.98448968      27.17051865      18.30348308 
Au      28.43504991      20.80643798      20.87553171 
Au      29.05520421      27.37820599      28.39569020 
Au      30.03745518      20.85299139      27.31511240 
Ag      18.17248163      23.84413270      20.27488048 
Ag      17.69065660      19.60126561      20.57716142 
Ag      25.66660266      27.75872770      30.59271163 
Au      28.14293428      23.36283252      31.32177582 
Ag      21.86379907      30.16868092      28.05443391 
Ag      21.77483962      24.08374790      32.94795182 
Au      18.73027335      27.92324299      20.06110725 
Ag      16.33864500      21.92828911      21.59756842 
Ag      30.49171024      25.08305622      27.24215378 
Ag      23.41789462      23.48887513      24.34393030 
Ag      20.06005399      30.01078015      21.64263820 
Au      16.54165262      20.03000628      26.37755995 
Au      26.74712382      16.98503214      26.93979676 
Ag      29.99094567      25.17695922      30.11499670 
Ag      17.56297785      28.42213154      25.86102359 
Ag      16.19576879      26.28149854      24.25254529 
Au      28.55525405      29.22551615      23.46873578 
Au      27.85968247      26.91649297      19.09544165 
Ag      24.14233878      19.02323482      18.71907137 
Ag      27.39549401      16.74839588      23.99960143 
Au      26.99585287      18.76535651      19.22848145 
Au      25.89504173      21.32771703      32.67597470 
Au      12.43074131      18.85710541      21.94275030 
Ag      23.13447634      21.04789744      16.90404212 
Au      26.37124923      29.25910511      19.83245694 
Au      20.96765331      19.87011747      32.82150339 
Ag      26.08395793      17.16057557      29.82529879 
Au      29.26378073      18.68198264      22.77058182 
Ag      27.57720893      29.70314641      29.40218320 
Au      15.15259346      22.44667155      27.34452095 
Ag      26.09493781      20.81758963      17.39604408 
Au      24.53189896      23.81055458      33.52694226 
Ag      23.66787815      25.15638986      16.60595701 
Au      17.52298201      17.93121773      28.07801157 
Ag      19.04570265      30.39182078      27.45178397 
Ag      23.53597130      29.48829163      19.37144205 
Ag      22.45326196      25.58838815      22.45976732 
Au      16.07363529      20.05239838      29.24105354 
Ag      27.40459666      19.14199262      31.44839918 
Ag      29.17815482      28.98624876      20.59816845 
Ag      16.42395199      24.52059275      29.00105421 
Au      31.91844440      22.82534716      26.17802616 
Au      16.68548410      21.66186645      18.74856612 
Au      24.96836684      31.59530211      20.75843528 
Ag      22.00447888      31.74964110      20.32684002 
Au      20.82385191      25.38706560      16.14264176 
Au      24.30773716      31.86518704      23.96511739 
Au      20.67956329      29.70563815      18.74460334 
Ag      23.13148486      14.96620301      21.59154131 
Au      30.34623890      22.60282799      19.60671258 
Au      25.07577628      22.84291309      15.59443481 
Au      18.86670385      23.64202672      17.31295563 
Ag      28.96754604      20.55813622      18.04748790 
Au      17.55105952      22.56597913      30.96142813 
Ag      17.11408558      28.62979174      28.74317955 
Au      27.87065032      16.65401798      21.09882240 
Au      15.60434442      26.74317259      27.08101196 
Ag      18.79886189      15.59884784      26.99028504 
Ag      19.66538827      15.34384799      23.98506732 
Ag      18.04436103      26.63579400      30.71672507 
Au      20.22529974      15.34119828      21.20945327 
Au      27.32643527      31.55389296      24.35426842 
Au      24.97003496      15.11369394      28.28749427 
Au      23.96448928      23.30054041      21.47153076 
Ag      20.23140098      21.15834654      16.27181671 
Ag      27.90485645      22.66295266      15.99476441 
Au      31.34876342      20.53213938      21.67078209 
Au      26.74910552      31.75894309      27.59471491 
Au      25.59077490      14.90532901      25.17873936 
Ag      28.70819796      16.23104254      28.90837405 
Ag      26.03729959      14.77660383      22.30089525 
Au      32.52115470      22.59499909      23.35397094 
Ag      25.50414481      30.51940155      31.39216478 
Au      22.76641553      30.79944099      30.75590573 
Au      24.11981011      16.92907319      31.92335842 
Au      31.32635576      17.87442568      24.79456993 
Ag      17.09183128      26.11142928      18.56162085 
Au      31.54447056      22.80382736      28.91518012 
Au      29.37630844      16.02636446      26.00679918 
Au      15.58860047      29.15565271      23.86646853 
Ag      16.10303126      28.92743110      20.96715393 
Au      17.06804243      31.21799973      25.54125707 
Au      29.35724002      24.86574116      17.89899918 
Ag      30.71163585      18.06099453      27.68069374 
Au      18.46528242      17.41105199      30.74189799 
Ag      23.83091401      19.62794843      33.67742986 
Au      18.12017557      30.68202311      19.71549316 
Ag      17.50495066      30.98542450      22.60145946 
Au      14.20208810      26.99543604      22.31077090 
Ag      32.62905792      19.96568158      26.39685845 
Au      24.77670199      25.55954396      25.97135811 
Ag      32.87325201      26.71770276      23.21768994 
Ag      24.94450578      20.03875432      14.89923293 
Au      19.91967946      31.02413546      30.06018896 
Au      31.70128281      27.75273993      27.08027489 
Au      23.47762137      28.49668990      32.52496025 
Au      29.92717866      15.91159065      23.02626565 
Au      22.44474240      17.02936416      34.52751489 
Au      13.18349596      19.65113918      28.56909519 
Ag      24.20082802      27.86747508      15.60428829 
Au      15.12491746      17.52350562      30.83444849 
Au      25.75240606      25.59028973      14.65874528 
Au      28.67232465      30.54310391      32.37482008 
Ag      22.75280408      30.16215423      16.76045985 
Au      22.13830408      21.93788878      35.25797343 
Au      31.35217853      28.30280850      31.10601059 
Ag      19.63670319      14.95523147      29.72558733 
Ag      22.89247575      25.67234491      13.83877526 
Au      16.17908725      14.72259206      28.14923237 
Au      25.46491877      33.73908417      29.37130550 
Au      26.53967049      14.44081029      30.93131062 
Au      28.59365117      13.35482831      24.01295817 
Au      16.21481371      17.16149442      19.32834223 
Au      16.20307893      17.33114884      23.07742541 
Au      20.75785744      15.36547036      17.65989782 
Ag      12.01057129      24.74874544      22.98550889 
Au      14.66483705      30.17612986      27.05391784 
Au      24.32203316      21.34700085      26.13649357 
Au      14.90105102      20.00479770      20.06098742 
Au      25.45272548      31.22455238      18.03350287 
Au      28.57157702      20.26567821      14.43585596 
Ag      30.11840869      26.98776015      22.48898054 
Au      30.98456057      24.88555843      24.24338518 
Ag      31.75424658      24.72398682      21.44577523 
Au      20.54817664      23.75812422      23.74631014 
Ag      25.22010226      14.99232011      16.10501679 
Au      31.27039264      28.96571967      24.35595393 
Au      25.73160162      23.41731153      27.87263632 
Au      27.10584561      27.49900152      16.37467431 
Ag      20.72479440      31.33245763      33.02261247 
Ag      17.69162586      23.97081548      23.20321862 
Au      23.00235815      19.30148683      24.49941050 
Au      27.76680862      20.91572654      23.87970365 
Ag      19.61204844      25.85076869      21.88770593 
Ag      25.00119174      30.80055349      14.89769951 
Au      25.17101413      19.23325788      27.97474183 
Au      19.02849956      26.04739675      24.78266808 
Ag      20.49411816      28.11372612      26.44099820 
Ag      21.38461418      26.00674086      28.26254160 
Au      29.08718986      23.03719151      25.57713177 
Au      19.18906620      21.70732189      22.11793972 
Au      24.58079644      16.99598219      23.43657047 
Au      22.90291002      28.10401215      29.82727022 
Au      20.68907883      19.46563205      21.07829920 
Ag      20.32619695      22.14096465      31.26638509 
Au      24.77223283      30.03156522      28.72167101 
Au      18.05627726      28.19513707      22.93828670 
Au      28.08200511      18.98283378      28.59802906 
Ag      18.88766872      20.08389155      29.78081381 
Au      29.75759473      22.75794785      22.63537177 
Ag      19.63915657      21.54510878      19.18794351 
Au      18.27753346      17.71223569      25.13365779 
Au      15.71774119      22.17063679      24.47039737 
Au      16.69709650      26.08402712      21.35698785 
Au      26.48330170      24.85098448      17.33171384 
Au      28.01886474      29.47883041      26.40596149 
Au      17.27988693      19.90789416      23.50358527 
Ag      18.88879690      17.58642274      22.31397231 
Ag      30.65507127      20.68304090      24.46936875 
Au      22.20395793      27.48627557      17.71028684 
Au      21.20339936      19.33414744      18.19428398 
Au      22.20420427      17.19084109      19.87891848 
Au      21.92504764      15.34402974      27.54788021 
Au      19.01562097      24.40719103      32.44403571 
Ag      26.48406962      25.59855692      32.46330471 
Ag      14.86893608      24.20798665      22.63102257 
Ag      29.58915385      20.73273421      30.20898332 
Au      23.72199395      32.00952105      26.79098134 
Au      22.51215154      15.07336329      24.73291359 
Au      25.02446134      16.86382655      20.54321634 
Au      28.46020704      27.64312754      31.18498175 
Au      19.33041238      17.43652378      19.46681483 
Ag      27.80889275      31.25188669      21.58235250 
Ag      15.31831997      24.02552014      19.80381258 
Ag      21.22688535      17.18765493      31.49125342 
Ag      21.31657830      32.08870626      23.19047713 
Ag      14.17679615      24.42250382      25.35705348 
Ag      22.30548273      22.99387119      14.91870708 
Ag      30.67750903      26.78723553      19.58180763 
Au      18.41465124      19.42720755      17.65540277 
Ag      22.96179053      18.22341720      16.24622399 
Au      15.58247559      17.37496905      26.00765319 
Ag      30.23930221      29.90282563      28.21317812 
Au      29.79524265      18.29788361      19.90973126 
Ag      13.65549636      21.57006918      22.52194400 
Au      30.37584048      17.51830089      31.02247822 
Au      26.75156937      15.94299274      18.53863339 
Ag      20.77982108      32.26941696      26.19745157 
Ag      19.31334127      27.82767844      17.08525742 
Au      25.88898469      18.02483105      16.66956037 
Au      14.54263558      19.49750196      24.33563826 
Au      18.91692547      33.36838497      20.77201297 
Au      23.76594943      22.16964504      12.48618019 
Au      34.56914320      22.63077514      27.55674801 
Au      29.03543617      32.83971319      29.28397291 
Au      19.42270845      31.21677649      16.47154240 
Au      23.64818136      15.10795913      18.74588619 
Ag      14.10992314      27.12279762      19.32189908 
Ag      21.25134572      26.94589216      34.09657472 
Au      19.57936657      28.61817743      32.08563846 
S      20.59051554      15.92481767      33.58498038 
S      28.66193568      32.47988918      19.57865268 
S      24.13148399      23.07303433      35.82794134 
S      24.29294350      18.07091091      35.57005518 
S      12.39777565      18.28706466      24.22353028 
S      32.21685573      17.42758548      29.55484443 
S      31.47985903      14.83544189      21.44526634 
S      29.90367537      19.30563500      16.11800973 
S      28.20993923      21.85770698      33.30002587 
S      23.29914791      28.09476190      34.89877953 
S      13.57013824      29.99934085      24.97048530 
S      16.36173076      18.13538620      17.16128805 
S      32.73443437      23.23255224      19.68306948 
S      26.64623012      30.71090505      33.56178159 
S      22.83305020      32.43494493      32.60461965 
S      17.30372109      31.37390959      17.49540323 
S      11.34496627      22.45033997      22.75684377 
S      25.06680612      13.13221272      26.80498339 
S      33.67115127      29.14079950      27.51160577 
S      28.57304678      26.51475303      33.41506174 
S      23.64244428      24.42177427      11.79445315 
S      27.42001115      25.59230341      12.87744586 
S      19.08490461      33.29349346      30.32921874 
S      28.71275024      17.43206450      32.69376776 
S      21.15974789      34.14545914      24.59630522 
S      30.84569313      32.26318600      27.89065941 
S      28.92514978      29.10492693      16.28195059 
S      33.60917094      17.33520035      24.04937649 
S      34.85292164      21.85470780      23.58570429 
S      19.16184209      13.53054420      25.61888375 
S      20.79247746      33.70033694      19.37649835 
S      12.55468056      19.45318222      19.67241923 
S      18.67044095      30.22863854      33.66427046 
S      32.03742797      30.90926049      23.12915235 
S      35.29542225      27.18687345      23.40217887 
S      30.88415207      30.58534524      31.53479203 
S      23.08959275      13.16474798      23.31899711 
S      32.07005465      19.15887198      19.76824067 
S      28.61754316      14.61556474      17.72345615 
S      15.53349667      30.48561213      29.22706495 
S      31.56133805      21.94505072      31.19084802 
S      20.69804659      26.88526536      14.23079582 
S      17.12953950      26.92921224      16.23477853 
S      27.45237875      12.74513836      22.03920196 
S      16.77058996      33.56900235      26.17163995 
S      15.32172765      21.60662852      31.02263297 
S      21.11312738      16.63413302      15.68297342 
S      24.69221562      28.95883916      13.40109052 
S      20.02297956      22.33887050      14.09790065 
S      21.35395549      31.43520249      15.13937685 
S      23.48042479      34.04198655      28.13246815 
S      13.27319717      17.43586167      29.37898429 
S      24.35909268      33.51023667      22.14469029 
S      27.42922946      20.95559124      12.49510072 
S      16.55994731      23.08676013      16.74894637 
S      25.98833953      16.70432284      14.58441026 
S      17.32879345      14.03262649      30.08118669 
S      28.54165043      13.91178324      29.79831261 
S      27.38958825      33.71728548      30.74445703 
S      32.82973763      27.99541269      19.38869869 
S      24.73662653      14.63700069      32.45002992 
S      14.36090447      29.54179994      19.31997188 
S      13.31721530      25.89743321      27.17530803 
S      34.52262420      20.30763691      27.98051956 
S      30.25563380      23.61875303      16.00707815 
S      19.09011710      25.82416951      34.43561229 
S      35.18595435      24.88948652      27.22718351 
S      20.10145223      20.78147980      34.90955988 
S      32.18137476      26.11268924      30.89021888 
S      23.57773649      19.83832743      12.83762250 
S      16.99098062      33.37744295      22.13438380 
S      15.60148446      26.18041568      30.68931039 
S      11.80574030      27.16440940      22.77066667 
S      24.39017103      13.18374904      17.48600854 
S      13.16067610      24.91859313      18.98116004 
S      21.80938062      13.75990909      29.37075361 
S      16.79779811      17.53097874      32.49351968 
S      15.80210479      15.80431816      21.24103278 
S      14.91429935      15.05959887      26.18427763 
S      25.36162566      32.79048197      16.20051489 
S      29.80546581      13.62490306      26.02684526 
S      20.20085427      13.74235911      19.31120380 
S      27.03920475      33.49607833      25.78826676 
S      12.80449016      21.80736480      27.71856254 
C      21.08587484      14.16471979      33.43539348 
C      30.43571378      32.88002727      19.84128240 
C      23.60374409      24.53936529      36.79862633 
C      23.68274267      18.82670134      37.12961466 
C      11.10392570      19.33390223      24.99347895 
C      32.58981367      15.63843123      29.36412944 
C      31.61506459      13.03160386      21.75872477 
C      31.56632051      20.03691729      15.85296668 
C      28.12019738      22.83644098      34.84649709 
C      22.83607720      29.66851614      35.71829997 
C      13.37529025      31.71634167      24.35508449 
C      16.93037416      16.75862647      16.08617720 
C      33.21372090      24.22753381      18.22301865 
C      26.51405176      32.45921905      34.10174113 
C      22.40997747      34.09364220      31.94912561 
C      16.98894007      33.18168622      17.46566808 
C      10.59364436      22.43861930      21.07742554 
C      26.56520816      12.16569609      27.20678652 
C      34.67874101      28.33694950      28.81618339 
C      28.13036005      27.65295933      34.78238937 
C      22.16461500      24.42098425      10.69927407 
C      26.68318227      26.34939337      11.38105314 
C      17.58357826      33.16714479      31.38296114 
C      29.44156524      18.27757994      34.15255772 
C      19.59728519      35.04984150      24.28203981 
C      32.36306634      32.58637760      28.86682174 
C      28.73332552      30.07504559      14.73909712 
C      34.49731790      16.72246937      25.53399583 
C      35.57602758      21.92645462      21.90023834 
C      17.56469730      12.77015382      25.12434960 
C      21.59340208      35.22087957      20.02514570 
C      12.51086057      17.91228759      18.67880275 
C      18.87115392      29.58102187      35.37007250 
C      33.72450915      31.39802994      23.66303627 
C      35.73507656      28.52768422      22.22613160 
C      31.90601828      30.91779518      33.02992634 
C      21.57709145      12.18401069      22.99161536 
C      33.21080549      17.85182674      20.34412437 
C      28.12672025      12.85435589      17.90674678 
C      14.26713438      29.81182412      30.37399862 
C      33.00243932      20.82071952      31.33657533 
C      19.41075062      26.14680777      13.15366650 
C      15.90663013      28.27945928      16.01976360 
C      26.41789596      11.30825177      22.52905311 
C      15.12360810      33.88298034      26.92225574 
C      15.20208651      20.77764869      32.65146378 
C      21.73157369      15.43810527      14.43524297 
C      23.14428898      29.35410614      12.49275854 
C      20.10952018      21.08741737      12.75505031 
C      21.75790470      33.21271444      15.38121662 
C      23.89934900      35.39497162      26.96759688 
C      11.82491074      17.33461912      30.50778171 
C      25.87450653      34.53247667      22.27036983 
C      28.80024371      21.24003532      11.30100003 
C      16.56112574      21.91343157      15.34415967 
C      27.76855312      16.34671126      14.31155967 
C      17.56322021      12.22994545      29.80014744 
C      29.72586282      13.66526133      31.18115784 
C      27.82102652      35.50102119      30.87384741 
C      32.65748153      29.17913432      17.98979505 
C      25.62779999      14.75514129      34.05207238 
C      12.93002484      30.18816645      20.27472904 
C      12.11000753      27.12674145      26.56198499 
C      36.10382554      19.74294268      27.23350155 
C      30.45176601      24.85707276      14.66897950 
C      19.22970595      24.73414409      35.90920942 
C      36.51649778      24.72964222      25.96802221 
C      20.01995851      19.45687207      36.17539761 
C      32.25544499      25.50735107      32.62194845 
C      24.52976668      18.99644673      11.51586830 
C      15.55887257      33.38486031      20.98461439 
C      15.22716874      25.40067436      32.30824466 
C      10.82926403      27.26048085      21.21380210 
C      22.92510971      12.43743471      16.66951874 
C      13.08717279      24.66024705      17.16334394 
C      21.45678364      12.15822442      28.54792780 
C      16.73808467      15.88263555      33.29497384 
C      14.00612175      15.43423541      21.22817122 
C      13.14359398      14.97841279      26.64782882 
C      27.08111711      33.37085401      15.92053688 
C      31.57376951      13.44068192      25.57032352 
C      18.42421119      13.37050995      19.03381605 
C      28.66019016      34.34447978      25.86936791 
C      12.25767830      22.77813246      29.17422886 
H      22.06407602      14.05974983      32.95346605 
H      21.10839983      13.71662129      34.43506060 
H      20.32443071      13.66605808      32.82280479 
H      30.87542987      33.19622463      18.88914428 
H      30.47662815      33.70924009      20.55796638 
H      30.99035965      32.02814044      20.25006092 
H      24.49119998      25.16198777      36.96202015 
H      22.84796314      25.12686419      36.26669776 
H      23.20914357      24.19260661      37.76043634 
H      23.25761204      18.05054786      37.77474267 
H      24.55377095      19.27679673      37.62124974 
H      22.94206575      19.61149289      36.93763002 
H      11.31583961      19.37753452      26.06975238 
H      11.09985833      20.34407748      24.56927326 
H      10.13522972      18.85114421      24.81897086 
H      33.40018501      15.55562285      28.62962433 
H      32.92673470      15.23414365      30.32507470 
H      31.71558513      15.08295364      29.00776666 
H      30.63782298      12.59174849      21.98746747 
H      32.04582836      12.55896160      20.86871679 
H      32.29296098      12.89443690      22.60932303 
H      31.51028182      21.12811870      15.76700374 
H      32.17347532      19.76632837      16.72612682 
H      32.00296191      19.60513705      14.94578130 
H      27.77444907      22.18098580      35.65386718 
H      29.12988475      23.20461995      35.06352411 
H      27.43393290      23.68388395      34.73353396 
H      22.06120873      30.21042029      35.15999514 
H      22.47523047      29.44117455      36.72857025 
H      23.73304025      30.29615313      35.77993630 
H      12.67388315      32.24399129      25.01137814 
H      14.33738538      32.23947943      24.32593228 
H      12.95493317      31.65139228      23.34418047 
H      17.09717863      17.17490611      15.08541451 
H      17.86503647      16.32189368      16.45606618 
H      16.14286449      15.99785262      16.04412766 
H      32.41503579      24.92118604      17.93542591 
H      34.11752669      24.79298468      18.47787730 
H      33.41691969      23.54350027      17.39115608 
H      26.84164732      33.14028542      33.30973350 
H      25.45878736      32.64837992      34.33288355 
H      27.12877757      32.59463399      34.99864581 
H      21.50398798      34.06422549      31.33343914 
H      22.25187931      34.75741978      32.80750249 
H      23.25625051      34.45122410      31.34883281 
H      16.02622823      33.35381643      17.96097323 
H      17.77992674      33.73178801      17.98731997 
H      16.92593724      33.50601578      16.42073341 
H      11.23237250      22.95158246      20.34963896 
H      10.45791499      21.39445780      20.77179825 
H       9.61937593      22.93744487      21.13077139 
H      27.42223304      12.80634849      27.43154483 
H      26.34114375      11.54522424      28.08300709 
H      26.80103367      11.52777521      26.34615744 
H      35.62942144      28.87963611      28.87984614 
H      34.13360818      28.41629654      29.76522341 
H      34.86715517      27.28188276      28.58936630 
H      28.18685491      27.07743255      35.71459955 
H      28.84955769      28.47994487      34.81291177 
H      27.12217371      28.06091515      34.66325202 
H      22.00757913      25.44997381      10.35363109 
H      22.35569843      23.77201446       9.83742544 
H      21.27575901      24.07587722      11.23728559 
H      25.81862630      25.77803006      11.02878873 
H      26.37655911      27.37470310      11.62072368 
H      27.46521747      26.35934880      10.61192052 
H      17.89211431      32.91161511      32.40381399 
H      17.08983112      34.14606681      31.37673451 
H      16.89692405      32.40289792      31.00290284 
H      30.31332932      17.71207535      34.49822769 
H      29.72116773      19.30958896      33.91632348 
H      28.67017777      18.28289306      34.93243412 
H      18.72812129      34.38628481      24.27778829 
H      19.46830383      35.80038431      25.07073225 
H      19.67276921      35.54753640      23.30785686 
H      32.24951148      32.22018711      29.89242474 
H      33.18435193      32.05071247      28.37506534 
H      32.55932415      33.66418457      28.86709837 
H      29.51736746      30.84024205      14.70505818 
H      28.85642525      29.37914509      13.90059729 
H      27.74252867      30.54439137      14.67389322 
H      34.18246124      15.68442179      25.69460391 
H      35.57460552      16.75432430      25.33599893 
H      34.25670217      17.32263716      26.41839616 
H      34.86864906      21.56660589      21.14631285 
H      35.81233215      22.97831667      21.69838549 
H      36.49389765      21.32835031      21.88865365 
H      17.06117829      12.37311844      26.01392831 
H      16.90336710      13.49520197      24.64033410 
H      17.78259242      11.95150603      24.42818665 
H      22.51431591      35.36971427      19.44847182 
H      20.92143074      36.07248246      19.87332850 
H      21.84618477      35.11713860      21.08562538 
H      12.68147177      18.20062615      17.63476317 
H      13.29498534      17.21237172      18.98781340 
H      11.52085250      17.45507460      18.78497153 
H      18.61746148      30.38788034      36.06770944 
H      18.17891570      28.74131137      35.49865842 
H      19.89197784      29.23403681      35.55936821 
H      34.35532351      30.52781270      23.88044343 
H      34.18334414      32.00165699      22.87113600 
H      33.62184973      32.00048095      24.57330192 
H      35.95801310      28.05776757      21.26147979 
H      34.91171467      29.23688737      22.08208405 
H      36.62151129      29.05346768      22.59765992 
H      31.69245732      30.20009611      33.82697508 
H      32.96105118      30.85050811      32.74021236 
H      31.67789111      31.93431288      33.37057458 
H      21.21503481      11.77244778      23.94050418 
H      20.79225727      12.80461547      22.54016189 
H      21.85149089      11.37549288      22.30348465 
H      33.31407881      17.11084030      19.54250500 
H      34.18081812      18.31993144      20.55203350 
H      32.84128401      17.35793125      21.24679629 
H      27.34219229      12.64292457      17.17029271 
H      29.01021681      12.23785444      17.70447067 
H      27.75143924      12.65287850      18.91541134 
H      13.35080656      30.40527778      30.28863290 
H      14.06667100      28.75550335      30.16616064 
H      14.67656716      29.90428684      31.38744271 
H      32.88672956      20.26247792      32.27383668 
H      33.06570201      20.11777769      30.50089074 
H      33.91720720      21.42307958      31.37290629 
H      19.52137299      25.05695681      13.10102305 
H      18.43027499      26.39562217      13.57948812 
H      19.51088631      26.58721613      12.15452380 
H      15.88261067      28.96232192      16.87337717 
H      16.17559261      28.84535646      15.12009273 
H      14.91520550      27.82969902      15.88725708 
H      27.06793626      10.47272520      22.81010261 
H      25.74383779      11.56521161      23.35289055 
H      25.82076097      11.03181559      21.65147484 
H      14.39206964      33.98588016      26.11259731 
H      14.82278410      33.06689143      27.58920987 
H      15.17947626      34.82415633      27.48161751 
H      14.92711984      21.54210934      33.38821687 
H      14.41959474      20.01102365      32.59337467 
H      16.14668663      20.30648259      32.93838728 
H      21.88031337      15.99504986      13.50201459 
H      22.68653058      14.98964617      14.73944357 
H      20.98282507      14.65400024      14.27610465 
H      22.39006747      29.80275485      13.14729476 
H      23.39149726      30.04884004      11.68202611 
H      22.75135759      28.41991688      12.07413480 
H      19.09353033      20.71905759      12.57017777 
H      20.49744847      21.56480068      11.84719291 
H      20.76566929      20.25188903      13.01659262 
H      22.76372045      33.38639135      14.98114041 
H      21.02645671      33.81091270      14.82673466 
H      21.73199232      33.48407378      16.44193496 
H      23.93397235      36.33335569      27.53269008 
H      24.86220715      35.20386801      26.48069288 
H      23.09860000      35.43039933      26.21694849 
H      11.86597455      16.36581275      31.01857595 
H      11.83305121      18.14347112      31.24347145 
H      10.91642123      17.39490647      29.89755260 
H      26.09996426      34.94083651      21.27879382 
H      25.66866879      35.34447706      22.97804700 
H      26.71800588      33.93284686      22.63436820 
H      29.54267476      21.93474461      11.70422522 
H      29.27543836      20.28067346      11.06747568 
H      28.35856751      21.66359610      10.39128488 
H      15.53696415      21.54468390      15.21481720 
H      16.89448825      22.45633218      14.45207253 
H      17.24107926      21.07368682      15.53630800 
H      28.25028577      15.97392141      15.22184554 
H      27.83862545      15.59379590      13.51757417 
H      28.25575027      17.27661913      13.99116856 
H      16.58528745      11.73586812      29.79824496 
H      18.07700907      12.04373251      28.85168523 
H      18.16828990      11.84027994      30.62749280 
H      30.70930979      13.46979394      30.73693568 
H      29.78221904      14.55107456      31.82293717 
H      29.41281658      12.79271971      31.76502121 
H      27.91348756      35.96235607      29.88669516 
H      27.03104048      36.00019353      31.44663456 
H      28.77356021      35.57630814      31.41088537 
H      32.76113919      28.61490243      17.05588542 
H      31.68188657      29.67798745      17.99621628 
H      33.45820726      29.92388517      18.05874607 
H      26.43491284      15.49326087      34.00031732 
H      24.90191668      15.05523734      34.81816789 
H      26.03816991      13.76557754      34.28341190 
H      12.80855555      29.66161582      21.22779263 
H      13.11111241      31.25244396      20.46768795 
H      12.02114888      30.08383886      19.67100923 
H      12.36882010      27.49935046      25.56729509 
H      11.13218073      26.63143567      26.51794811 
H      12.07072886      27.96545897      27.26705469 
H      36.13859021      19.95594463      26.15910325 
H      36.93664775      20.23921645      27.74353426 
H      36.17436163      18.66063430      27.39586125 
H      29.65821314      25.61042787      14.69837913 
H      31.42699345      25.34281355      14.79259480 
H      30.41764650      24.33836937      13.70379721 
H      20.06164108      24.02514862      35.81986830 
H      19.37759257      25.37348752      36.78740168 
H      18.29155766      24.17680785      36.01351204 
H      36.73074453      25.72955780      25.57172767 
H      37.40707150      24.32189603      26.45900561 
H      36.20867067      24.07082201      25.14927289 
H      20.01904246      19.91256612      37.17177755 
H      19.07770433      18.92016947      36.01115690 
H      20.85576555      18.75364106      36.07115955 
H      32.36885970      24.41652358      32.57092087 
H      33.12241517      25.95430071      33.12055709 
H      31.33459705      25.75470995      33.16385881 
H      25.51548062      19.45641988      11.39163093 
H      24.65192748      17.95048811      11.82237760 
H      23.95847241      19.05119827      10.58259767 
H      14.65440933      33.34505294      21.60389666 
H      15.56303818      34.31645436      20.40818026 
H      15.58005049      32.52045154      20.31161449 
H      15.32665433      26.15407083      33.09767881 
H      14.19617106      25.02905562      32.27733758 
H      15.91141324      24.56691537      32.50948191 
H      11.23823554      26.60807617      20.43417451 
H       9.80151994      26.95955025      21.44847372 
H      10.83226762      28.29865541      20.86344091 
H      22.41532367      11.80745675      17.40760289 
H      22.22608435      13.20269377      16.31592113 
H      23.27458125      11.82448954      15.83087183 
H      12.75185289      23.63179751      16.98444712 
H      12.36464002      25.36146987      16.73157810 
H      14.07111744      24.80190465      16.70326525 
H      22.38304249      11.80828748      28.07572665 
H      21.13916028      11.44549326      29.31854999 
H      20.67420868      12.26589501      27.78723665 
H      16.65892066      15.08145642      32.55290676 
H      17.66688895      15.77305884      33.86888310 
H      15.87278236      15.86793640      33.96751184 
H      13.40475762      16.35207761      21.28439001 
H      13.76700546      14.87447741      20.31666975 
H      13.80062716      14.81199079      22.10769909 
H      12.88784209      13.92555014      26.81526706 
H      12.94336307      15.56774559      27.54840101 
H      12.56701828      15.37699940      25.80436233 
H      27.80649779      32.55800474      16.03609899 
H      27.14120592      33.79332701      14.91117336 
H      27.29850466      34.14477944      16.66558318 
H      31.84852743      14.13486095      24.76874724 
H      32.16692949      13.65483086      26.46758276 
H      31.74648662      12.40569620      25.25394311 
H      18.31987694      12.86926653      18.06490682 
H      18.10062193      12.69643922      19.83596587 
H      17.81591945      14.28144846      19.05713060 
H      28.72823530      35.01459873      25.00382792 
H      28.69807544      34.92844027      26.79710375 
H      29.49194044      33.63429258      25.86052858 
H      12.26022939      23.83404262      28.87472960 
H      11.24205266      22.45926769      29.43425314 
H      12.93538604      22.62731844      30.02169202 
