699
Properties=species:S:1:pos:R:3 i=64 optimized=T E=-11709.4812678595 pbc="F F F" jobid=279_84-Ag-90_0-000004-PBE
Ag      33.14659194      25.36157665      26.06251552 
Ag      31.96503753      29.29343989      21.67239100 
Ag      34.38604978      28.18279362      25.64587133 
Ag      29.87296159      15.14133053      19.74101804 
Ag      33.81376245      19.64870600      23.75958555 
Ag      27.21101741      23.43009567      13.26976410 
Ag      18.20133461      33.20135100      28.02488790 
Ag      28.53251405      30.36099300      18.02757704 
Ag      24.92973238      21.26122666      23.26472067 
Ag      26.29391969      23.25522487      24.96177012 
Ag      28.19475457      25.05791034      23.70041351 
Ag      23.79959428      21.63748661      28.99005502 
Au      23.39301102      27.87903337      26.97358156 
Au      26.88778691      23.10399733      22.03394932 
Ag      22.41171327      19.58301407      27.35793811 
Ag      27.21003638      21.15261498      26.74735968 
Ag      22.03540957      21.54808619      22.71601979 
Au      21.02303084      23.62471382      20.86880098 
Ag      27.67033220      25.26963030      26.59457023 
Ag      20.00155045      24.05788427      26.70658016 
Ag      25.47664339      21.10347016      20.35879081 
Ag      24.29310619      25.75953075      28.79169844 
Ag      23.87880704      27.69630660      24.08936225 
Ag      26.23780729      27.59693973      27.58429244 
Ag      20.94573429      21.90994328      28.42472648 
Ag      22.88197605      23.73576685      27.19609959 
Ag      21.48961444      21.72238755      25.59513405 
Ag      19.56092092      19.88159956      26.85509177 
Ag      25.83119679      19.13909388      25.06454112 
Ag      25.23464415      23.62047623      30.70960617 
Ag      22.98434107      25.42709824      19.57055449 
Ag      21.01037694      27.95774244      23.55412931 
Ag      26.73182916      27.34992352      24.73186571 
Ag      22.60294404      21.38287176      19.82959062 
Ag      21.95696325      25.87302375      25.38199970 
Au      27.16068000      25.45528226      29.46411798 
Ag      20.12850805      19.72956834      24.00178910 
Au      25.85958751      25.15712276      20.17549116 
Ag      23.53250109      19.28445998      21.65514714 
Ag      22.34518072      23.94761930      30.02458753 
Ag      21.05649155      17.54126222      25.76231281 
Ag      21.50218662      27.70285597      20.64816153 
Ag      24.37651410      27.45229358      21.24846250 
Ag      24.51376860      23.16333309      18.51053853 
Ag      28.62550337      23.14160810      28.48630248 
Ag      18.62660572      22.00653570      25.10742327 
Ag      26.69826827      21.28447057      29.63497664 
Ag      22.47257888      30.04870392      25.14636071 
Ag      27.25015430      27.13527175      21.85214690 
Ag      21.82533874      19.74785161      30.23932456 
Au      18.50469957      26.41900589      27.71671731 
Ag      23.18138557      21.78800472      31.82692852 
Ag      21.58246794      23.43999046      17.94401882 
Ag      17.09920156      24.34338720      26.20944970 
Ag      27.44351460      22.89704070      19.10374076 
Ag      23.88786891      17.22847720      26.27871221 
Ag      23.29989245      17.50235629      29.16335380 
Ag      25.29652515      29.73269907      25.72415089 
Ag      21.61529752      17.34359988      22.90192439 
Ag      28.72915007      18.83523268      25.69000344 
Ag      22.87610477      29.78602917      22.25913073 
Au      25.33437421      25.37691819      23.10101030 
Ag      20.05653303      25.67316060      19.00075449 
Ag      29.62092201      27.07711547      25.37517893 
Ag      19.41238216      24.28933607      29.56156241 
Ag      18.05457365      22.22849519      27.95658712 
Ag      20.00143425      28.34925288      29.32030105 
Ag      23.75175307      25.88985228      31.63359160 
Ag      20.95487186      26.30103249      31.12945311 
Ag      26.39028372      19.02358148      22.18435994 
Ag      24.65914098      19.53692611      30.77128324 
Ag      20.41682868      17.72853054      28.65514181 
Ag      28.86020246      24.86232691      20.76888815 
Ag      19.57900798      30.27167913      24.65900513 
Ag      25.76312858      29.53785634      22.84502507 
Ag      24.86932432      27.23653767      18.26957216 
Au      28.41182826      20.83345333      20.94461236 
Ag      29.06717324      27.38402713      28.23295747 
Ag      30.05538880      20.90137215      27.36279275 
Ag      18.14762592      23.94698973      20.35355225 
Ag      17.79183150      19.75385637      20.66565591 
Ag      25.66872076      27.74352825      30.44590105 
Ag      28.06653891      23.38183762      31.32417237 
Au      21.93600700      30.16024290      28.08432836 
Ag      21.81322772      24.12217004      32.85575361 
Ag      18.66183379      27.99513036      20.15419149 
Au      16.34539906      22.04872548      21.70773778 
Ag      30.50651273      25.01200733      27.18307129 
Ag      23.41466035      23.55194809      24.33567221 
Ag      20.05907546      30.05070108      21.71874738 
Ag      16.65841136      20.10883426      26.39457055 
Ag      26.71549765      17.03785097      26.87598568 
Ag      29.90972932      25.25994086      30.02796275 
Ag      17.64123557      28.50259133      25.92557753 
Ag      16.22553207      26.38405369      24.34189123 
Ag      28.55352589      29.17342087      23.43409075 
Ag      27.86309513      26.90901946      19.03836851 
Ag      24.13037296      19.09258927      18.69563077 
Ag      27.33600079      16.82013921      23.97448996 
Ag      26.93978797      18.83072342      19.30485398 
Ag      25.95274467      21.39531748      32.53160290 
Ag      12.63697720      18.84340338      22.06899605 
Ag      23.11266884      21.15159185      16.96068101 
Ag      26.33469083      29.14958999      19.98196415 
Ag      20.01835711      19.58083570      32.39882416 
Ag      26.11448497      17.21812781      29.71373661 
Au      29.21231145      18.74061932      22.79710918 
Ag      27.64361936      29.66590132      29.22480930 
Ag      15.27018672      22.46185201      27.42850447 
Ag      26.02595784      20.91945054      17.39396661 
Ag      24.55930521      23.81456289      33.48550973 
Ag      23.56709899      25.18458783      16.60652068 
Ag      17.60172781      18.02633761      28.15033705 
Ag      19.12802844      30.47144304      27.52219154 
Ag      23.44025231      29.47413573      19.39799721 
Ag      22.44015858      25.65592965      22.46780125 
Au      16.23560136      20.26451857      29.28417696 
Ag      27.46303447      19.12171875      31.44303579 
Ag      29.15290073      28.94312982      20.61693971 
Ag      16.56459829      24.55388378      29.04335460 
Ag      31.93593697      22.74682686      26.16643700 
Ag      16.69893168      21.77483560      18.88001608 
Ag      24.86528960      31.45281062      20.81701009 
Ag      21.94802788      31.78420777      20.37489623 
Ag      20.69269729      25.47378888      16.16391613 
Ag      24.35009560      31.90504216      23.86992723 
Ag      20.59311500      29.76444409      18.80450331 
Ag      23.12112893      15.15761756      21.56986098 
Ag      30.36899125      22.55822565      19.68242243 
Ag      25.07623027      22.96117357      15.58993581 
Ag      18.70209294      23.68628694      17.38748766 
Au      28.85183991      20.64833721      18.11100071 
Ag      17.60276090      22.47627659      30.90226244 
Ag      17.16700179      28.73706246      28.78933570 
Ag      27.84475788      16.76054144      21.10910884 
Ag      15.62074574      26.83673337      27.14565859 
Ag      18.93946760      15.76486350      27.00248820 
Ag      19.64091524      15.55409702      24.04095204 
Ag      18.11880972      26.70383827      30.71808320 
Ag      20.21399558      15.47219801      21.22804935 
Au      27.23489840      31.50643690      24.33668778 
Ag      24.80606149      15.17257388      28.21703702 
Au      23.94679355      23.34758717      21.43548471 
Ag      20.19055859      21.30202820      16.43008674 
Ag      27.91478133      22.85690683      16.12556424 
Ag      31.37082661      20.38285482      21.74035139 
Ag      26.86417693      31.70688970      27.37303818 
Ag      25.59779890      14.94561369      25.21495854 
Ag      28.67620982      16.21514403      28.81784498 
Ag      25.97571735      14.88754092      22.25975128 
Ag      32.57827290      22.58316434      23.33303557 
Ag      25.75336898      30.45356631      31.30324255 
Ag      22.98004913      30.90050137      30.68961683 
Au      24.22878338      16.98879389      31.84303695 
Ag      31.28087769      17.93647501      24.73406349 
Ag      17.01577188      26.09863566      18.64360257 
Ag      31.52774263      22.96060541      28.97532774 
Au      29.32571393      16.06635947      25.90545914 
Ag      15.60121459      29.22903961      24.03744219 
Ag      16.07756943      28.99105445      21.15234320 
Ag      17.07322573      31.26297724      25.64392723 
Ag      29.41305585      24.78613837      17.94701137 
Au      30.67014107      18.05122210      27.59272636 
Ag      18.60636473      17.52056111      30.87914264 
Ag      23.84855378      19.56134506      33.45351428 
Ag      18.05567305      30.76947719      19.85099547 
Ag      17.51263545      31.02038732      22.71864210 
Ag      14.17281172      27.08936882      22.47258074 
Ag      32.61320763      19.94626338      26.48213986 
Ag      24.81710055      25.55753919      25.96476514 
Ag      32.67611959      26.91696051      23.49328495 
Ag      24.81412813      20.08690916      14.94199993 
Ag      20.14087060      31.05005055      30.17063100 
Ag      31.78191672      27.64819420      27.19650274 
Ag      23.84571022      28.61876786      32.49886758 
Ag      29.91912641      15.98853999      22.96452196 
Ag      22.33649996      17.05345770      34.30709300 
Ag      13.93522941      19.59686020      27.61431667 
Ag      24.08672425      27.87024695      15.57742476 
Ag      15.51500477      17.66409293      30.49146306 
Ag      25.73929923      25.69862310      14.70078315 
Ag      28.69093978      30.42408003      32.15496926 
Ag      22.62240538      30.07430301      16.75170928 
Ag      22.03197063      21.73898388      34.70098498 
Ag      31.16268818      28.08794231      30.22243412 
Ag      19.75958720      15.01795276      29.70756494 
Ag      22.85488663      25.58021650      13.72685960 
Ag      16.25739523      15.12118069      28.03225867 
Ag      25.14571117      32.76897553      29.46511707 
Ag      26.60681274      14.63997078      31.01370883 
Ag      28.35771349      13.65595616      24.00877165 
Ag      16.32351100      17.30501803      19.51536334 
Ag      16.13161048      17.35470420      23.28901006 
Ag      20.78600460      15.58203907      17.80899415 
Ag      11.97284483      24.58872643      23.09050666 
Ag      14.74135278      29.99778602      26.99120409 
Ag      24.35176360      21.41032319      26.14018758 
Ag      14.97143649      19.96217696      20.42126642 
Ag      25.48758276      30.09660556      17.48607968 
Ag      27.79433307      20.12459237      15.13401026 
Ag      30.06579674      26.94796447      22.51749562 
Ag      31.00172264      24.80482013      24.30833681 
Ag      31.71311293      24.78323174      21.55439513 
Ag      20.53460037      23.83940801      23.81279222 
Ag      25.29341376      15.08277717      16.06454388 
Ag      30.86806508      29.54905419      25.08699728 
Ag      25.74024078      23.42610356      27.83227648 
Au      26.95916602      27.74019832      16.47260345 
Au      20.82943839      31.37898496      33.12347785 
Ag      17.70227047      24.08408251      23.30686661 
Ag      22.97781859      19.39909850      24.48051917 
Ag      27.77794206      21.00504681      23.86138254 
Ag      19.58884680      25.92270195      21.95140518 
Ag      24.90885906      30.68041777      14.69856273 
Ag      25.23915656      19.31415566      27.91080172 
Au      19.09036548      26.14126329      24.84563257 
Ag      20.54011040      28.17918634      26.42321384 
Ag      21.43309799      26.04621345      28.25208142 
Ag      29.11765537      22.98713363      25.56578850 
Ag      19.18981970      21.81235425      22.19920197 
Ag      24.52694185      17.09072479      23.45064533 
Ag      22.85875442      28.11179143      29.89227435 
Ag      20.67625532      19.55979150      21.12727404 
Ag      20.40309848      22.18228581      31.23808739 
Ag      24.82834658      29.93517705      28.64837246 
Ag      18.08816494      28.27326505      23.02889832 
Au      28.10571500      19.01513648      28.59849389 
Ag      19.02946894      20.11525816      29.73752588 
Ag      29.77964027      22.75815352      22.64495102 
Ag      19.64281945      21.63487929      19.24575190 
Ag      18.21353059      17.87851521      25.22859867 
Ag      15.78020024      22.25592810      24.58372955 
Au      16.67132382      26.19200960      21.44477708 
Ag      26.45430493      24.99423912      17.33781896 
Ag      28.15368285      29.39731727      26.27143297 
Ag      17.20420925      19.96813184      23.52429029 
Ag      18.82346779      17.71786610      22.39395200 
Ag      30.67301702      20.72577960      24.49288728 
Ag      22.02953196      27.47732255      17.76072821 
Ag      21.17960305      19.41143899      18.28330327 
Au      22.18182389      17.33303251      19.96477236 
Ag      21.92706363      15.51624099      27.52262233 
Ag      19.03890007      24.45657112      32.39913037 
Ag      26.48054935      25.64718333      32.38508811 
Ag      14.87073382      24.31799082      22.82514016 
Ag      29.60564959      20.80892224      30.22011390 
Ag      23.90979421      31.95167777      26.76743618 
Ag      22.52868627      15.22651668      24.67712580 
Ag      25.02347645      17.04926896      20.55539445 
Ag      28.42576141      27.66171172      31.14888394 
Ag      19.31748850      17.56696831      19.54109948 
Ag      27.72402175      31.22045470      21.56174463 
Ag      15.26270532      24.10395542      19.96625327 
Ag      21.38841179      17.11287758      31.35551380 
Au      21.36854518      32.03947117      23.29117286 
Ag      14.22142908      24.53838067      25.57685634 
Ag      22.22994750      23.06720924      15.03273051 
Ag      30.67337361      26.75610421      19.63983838 
Ag      18.32645973      19.56485165      17.78641563 
Ag      22.89931132      18.34371325      16.25378605 
Ag      15.53144547      17.47848495      26.12784975 
Ag      30.32026335      29.97171476      28.00398567 
Ag      29.81992968      18.40482563      19.92366206 
Ag      13.71877365      21.67618804      22.61534639 
Ag      30.32472935      17.73129278      30.79832587 
Ag      26.74088452      16.05716678      18.55525190 
Ag      20.99764706      32.33685707      26.43964767 
Au      19.19354073      27.85740696      17.28659231 
Ag      25.88998799      18.07919417      16.66752839 
Ag      14.50791157      19.59497531      24.49398910 
Au      18.93443132      33.43204766      20.72688196 
Ag      23.86066953      21.96915539      12.79410555 
Ag      34.56106091      22.63441631      27.46447731 
Ag      29.00690389      32.53666406      29.23901158 
Au      19.28904917      31.13791982      16.51875241 
Ag      23.70882069      15.38604422      18.67114371 
Ag      14.10285962      27.15009675      19.48514368 
Ag      20.98261205      26.70333065      34.17299640 
Ag      19.74911696      28.65382316      32.10476481 
S      20.51635877      15.81092563      33.33809826 
S      28.48796146      32.32397902      19.47436295 
S      24.03514443      22.73081368      35.66040903 
S      24.08409127      18.20339636      35.50659566 
S      12.44156323      18.16657688      24.36383794 
S      32.25927344      17.42829952      29.35093957 
S      31.48662998      14.76108133      21.49614692 
S      29.61363209      19.04363990      16.43403746 
S      28.28599731      21.84224794      33.27802230 
S      23.12921521      27.70951012      34.68919887 
S      13.44939752      30.06348712      24.94001347 
S      16.31902397      18.19752920      17.24943962 
S      32.77593830      23.14688446      20.00673900 
S      26.72635091      30.61006143      33.57680093 
S      22.88087579      32.44497056      32.68002463 
S      17.19510543      31.30174789      17.57818566 
S      11.34449693      22.27227770      22.84428456 
S      25.07886632      13.11793557      26.82376322 
S      33.75540558      29.12274510      27.76505160 
S      28.63666471      26.42493418      33.34376832 
S      24.08637145      24.25015851      12.03890945 
S      27.63560633      25.81620067      13.09750937 
S      19.18344544      33.33646256      30.21346418 
S      28.85039841      17.49509719      32.70551269 
S      21.25108333      34.08083688      24.65351772 
S      30.96600198      32.35389210      27.81949935 
S      29.07299230      28.93057772      16.11185464 
S      33.51214073      17.25315250      23.91343522 
S      34.90988335      21.80507166      23.65311002 
S      19.37614994      13.67621553      25.64465784 
S      20.76057053      33.68681081      19.25671571 
S      12.68274439      19.37856292      19.72216740 
S      18.77226168      30.35080165      33.64993746 
S      31.69922259      31.06336876      23.31637372 
S      35.12888253      27.30696147      23.53093835 
S      30.95693085      30.30760110      31.31585253 
S      23.26837076      13.31491010      23.22071716 
S      32.19173219      19.14623102      19.73568291 
S      28.62746809      14.69548028      17.72375532 
S      15.47195318      30.47482099      29.24953039 
S      31.66154785      21.80873934      31.18698195 
S      20.74351657      26.80615210      14.07663554 
S      17.12507307      26.95413747      16.29812851 
S      27.41481273      12.89237839      21.90958382 
S      16.67413347      33.64231107      26.20627450 
S      15.20460853      21.77261548      31.00527308 
S      21.00596445      16.83265376      15.73814498 
S      24.49940514      28.82542744      13.24428385 
S      19.96501072      22.31825904      14.18206707 
S      21.20544158      31.32866096      15.15835642 
S      23.22391707      33.81718006      28.26360517 
S      13.71416755      17.47300115      28.87646900 
S      24.33392366      33.58151218      21.95876466 
S      27.28420016      21.03631739      12.89678487 
S      16.32382732      23.11358264      16.82610064 
S      26.16464531      16.73215083      14.55539111 
S      17.35647558      14.52627056      30.10654523 
S      28.63171305      13.98332074      29.88974610 
S      27.23536424      33.38762202      30.65513151 
S      32.77853901      28.07178492      19.73199701 
S      24.91242755      14.81513831      32.72983747 
S      14.33638198      29.57352152      19.48731285 
S      13.30693759      25.96465094      27.41350727 
S      34.68320707      20.25842140      27.81181179 
S      30.34497783      23.55524643      16.01106803 
S      18.75336167      25.78305334      34.48368367 
S      35.30180799      24.90975271      27.18100550 
S      19.79908644      20.79641735      34.53815674 
S      32.25711193      25.86591935      30.50361484 
S      23.44947176      19.57715593      12.93104028 
S      17.07345463      33.42276390      22.16994703 
S      15.66755771      26.26915260      30.64095476 
S      11.76631945      26.99053111      23.02169136 
S      24.39391372      13.34759817      17.46547734 
S      13.06181237      24.97451667      19.23565297 
S      21.98099773      13.93118993      29.43186461 
S      16.79933332      17.73750641      32.55638163 
S      15.93485186      15.79483516      21.37963509 
S      15.01201087      15.06539637      25.94685592 
S      25.34857229      32.36230228      16.35850412 
S      29.75639931      13.65892095      26.00333973 
S      20.20342115      13.81098844      19.37435487 
S      27.11837003      33.57689213      25.66104769 
S      12.89904361      21.78770294      27.08228071 
C      21.16478995      14.09341242      33.23785341 
C      30.23286540      32.82435492      19.77453673 
C      23.45435357      24.05841259      36.79501106 
C      23.34797099      19.04889445      36.96152957 
C      11.00020069      19.11346700      25.00141686 
C      32.49144060      15.61276411      29.19180987 
C      31.38177639      12.93655169      21.70602611 
C      31.21534995      19.71554172      15.84415880 
C      28.17064211      22.78343626      34.85176155 
C      22.81134043      29.16102573      35.77104953 
C      13.34452436      31.83690925      24.46750175 
C      16.85627363      16.81312769      16.16229891 
C      33.40185181      24.09583800      18.56403403 
C      26.56096212      32.35801814      34.11101632 
C      22.43117913      34.12867515      32.09932471 
C      16.83849739      33.10003544      17.48107620 
C      10.67560914      22.26896568      21.12905618 
C      26.59537286      12.21730302      27.32509367 
C      34.85169978      28.27087432      28.97037364 
C      28.27514910      27.48426269      34.80192589 
C      23.03758170      24.35791236      10.52740570 
C      26.96441644      26.38118351      11.48685734 
C      17.69606162      33.20914727      31.28839850 
C      29.66476182      18.37274310      34.10011016 
C      19.65261876      34.91080918      24.32736300 
C      32.44148912      32.59582525      28.88366069 
C      28.86101504      29.88741144      14.56064239 
C      34.47294007      16.72465714      25.38961481 
C      35.76279172      21.87484849      22.02588217 
C      17.83281702      12.76706037      25.22609742 
C      21.60729488      35.21895828      19.81504351 
C      12.68285095      17.81014767      18.76471115 
C      18.90362957      29.75502670      35.38235271 
C      33.36997704      31.62669205      23.83612206 
C      35.59269511      28.70164309      22.42805963 
C      32.02624180      30.14910461      32.80805275 
C      21.85679025      12.19713765      22.85024563 
C      33.31974545      17.78149170      20.21172204 
C      28.13611188      12.94215759      17.98691376 
C      14.17997152      29.76066573      30.34603350 
C      33.04583691      20.60510787      31.17622716 
C      19.46696386      26.03460695      13.00583466 
C      15.89385767      28.28552426      16.03060983 
C      26.42148372      11.39645151      22.30261992 
C      15.09436827      33.85313002      27.12676440 
C      14.89112772      20.88916090      32.58392712 
C      21.59867370      15.69116257      14.42553506 
C      22.94805906      29.26288500      12.36241952 
C      20.04455597      20.96084038      12.94442397 
C      21.65985698      33.09756295      15.36642887 
C      23.85704573      35.35108404      27.47276774 
C      12.15037954      17.71622908      29.82074841 
C      25.88067195      34.57263062      21.92451032 
C      28.85215432      20.73830627      11.97410758 
C      16.25511571      21.93390606      15.42071384 
C      27.92658487      16.26024536      14.32881188 
C      17.30669002      12.68563862      30.19121803 
C      29.82591539      13.89168731      31.28633334 
C      27.28900266      35.22298295      30.49846217 
C      32.69756424      29.26395276      18.33279022 
C      25.93573837      15.17955790      34.21202804 
C      12.86640818      30.17575996      20.41495534 
C      12.04914403      27.11992462      26.74598201 
C      36.18818015      19.80976748      26.85470724 
C      30.67543569      24.80871639      14.70786374 
C      18.86307372      24.62522806      35.91016697 
C      36.55451166      24.71596163      25.84741376 
C      19.61200064      19.51883940      35.84617712 
C      32.46140747      25.58494655      32.30826277 
C      24.58999269      18.77405480      11.73672660 
C      15.58079776      33.45731013      21.09977679 
C      15.20677602      25.51050090      32.24772920 
C      10.72562810      27.23996644      21.52490965 
C      22.91662248      12.63738109      16.63159268 
C      12.88352812      24.67915892      17.43009260 
C      21.67968584      12.29176839      28.65708722 
C      16.63752018      16.10200497      33.37461076 
C      14.18735665      15.22831870      21.32518466 
C      13.23231793      14.88558439      26.35760845 
C      26.98426018      33.12286908      16.00356868 
C      31.48744897      13.43914190      25.43112883 
C      18.44592307      13.38374389      19.03675028 
C      28.79132729      34.33401248      25.63978061 
C      12.03832841      22.32057979      28.61602690 
H      22.23212853      14.07687469      32.99066015 
H      21.00028258      13.61084659      34.20816138 
H      20.60730147      13.56001560      32.45825153 
H      30.70892121      33.05386920      18.81508522 
H      30.21736470      33.72580497      20.39877951 
H      30.79665567      32.04279557      20.29660728 
H      24.34124010      24.51663101      37.24875877 
H      22.89032662      24.83137803      36.26092294 
H      22.83278125      23.61393937      37.57975542 
H      23.18917902      18.30627533      37.75180851 
H      24.05998713      19.80988186      37.30130970 
H      22.39955930      19.53885696      36.71851566 
H      11.10861086      19.21347201      26.08826365 
H      10.94134075      20.11112988      24.55226157 
H      10.09270093      18.54477904      24.76777574 
H      33.23639910      15.43792576      28.40642108 
H      32.87149797      15.22887805      30.14561684 
H      31.55662488      15.10440372      28.92949414 
H      30.34671758      12.59883681      21.83195836 
H      31.82093780      12.46380176      20.82037333 
H      31.96960934      12.66079524      22.58906521 
H      31.14245276      20.78845641      15.63000247 
H      31.95880465      19.54440084      16.63309215 
H      31.49703921      19.16700882      14.93744495 
H      27.74953903      22.13117985      35.62474723 
H      29.18455710      23.09257595      35.13128759 
H      27.54073367      23.67291672      34.73308572 
H      22.17948335      29.90523105      35.26870729 
H      22.33324038      28.82517883      36.69807906 
H      23.78193712      29.61495302      36.00495630 
H      12.66467693      32.34763759      25.15881609 
H      14.32654690      32.32335073      24.48401475 
H      12.93038366      31.88605217      23.45330501 
H      16.85595104      17.18255848      15.12986684 
H      17.86518795      16.46762385      16.41439254 
H      16.14216313      15.98760907      16.25379417 
H      32.61825070      24.73960569      18.14690046 
H      34.25189301      24.70838066      18.88399971 
H      33.72170610      23.37634771      17.80138019 
H      26.90474681      33.03828014      33.32381654 
H      25.50211647      32.54998756      34.32130699 
H      27.15640954      32.49908533      35.02025842 
H      21.58536574      34.10137415      31.40322373 
H      22.18070409      34.73914141      32.97415491 
H      23.30884099      34.54524323      31.59006379 
H      15.86557252      33.26312950      17.96023549 
H      17.60692287      33.68882889      17.99470357 
H      16.77777659      33.39391964      16.42746796 
H      11.30224817      22.86484782      20.45596685 
H      10.63760646      21.23362090      20.77000300 
H       9.66415782      22.68951449      21.15970537 
H      27.43346101      12.89021440      27.52689738 
H      26.37099455      11.64766178      28.23432524 
H      26.87287412      11.52762226      26.51887703 
H      35.78875617      28.83633859      29.03112366 
H      34.35331487      28.26752141      29.94731807 
H      35.05864940      27.23797905      28.66886795 
H      28.26238954      26.83943026      35.68853265 
H      29.06647198      28.23572017      34.90732374 
H      27.31284462      27.99592343      34.70404575 
H      23.07522858      25.38844515      10.15496355 
H      23.44734961      23.68244551       9.76748398 
H      22.00017086      24.08446792      10.74309042 
H      26.09820572      25.77739263      11.19406249 
H      26.65592900      27.42792029      11.59166637 
H      27.75647389      26.29410661      10.73414539 
H      18.02983971      32.99876348      32.31156636 
H      17.16693789      34.16823434      31.25996608 
H      17.02754628      32.40850720      30.95191386 
H      30.61945364      17.88536830      34.32543030 
H      29.82239044      19.43031016      33.86127253 
H      29.00028270      18.29733815      34.96925148 
H      18.80797430      34.21887972      24.38907088 
H      19.52500209      35.69774568      25.08051478 
H      19.68348267      35.35640359      23.32577789 
H      32.27375398      32.17229980      29.88011654 
H      33.28855922      32.08460708      28.41158457 
H      32.64167991      33.67085414      28.95705205 
H      29.68219563      30.60825514      14.47409688 
H      28.90192065      29.17525085      13.72745824 
H      27.89750948      30.41155781      14.53539869 
H      34.25272866      15.66472107      25.56473989 
H      35.54171308      16.84051540      25.17773169 
H      34.20507858      17.30323498      26.28111291 
H      35.04522707      21.79595366      21.20147467 
H      36.27216601      22.84417790      21.96486149 
H      36.50176108      21.06842989      21.96832856 
H      17.40792696      12.34064185      26.14235429 
H      17.08892097      13.42284489      24.76351730 
H      18.09649748      11.95876363      24.53387999 
H      22.48084634      35.35239179      19.16514355 
H      20.92864639      36.07086133      19.69934711 
H      21.94729375      35.13146079      20.85218605 
H      13.03185306      18.03809063      17.75098711 
H      13.34597180      17.05788538      19.20394157 
H      11.65704949      17.42584992      18.73024662 
H      18.86086250      30.61490464      36.05998975 
H      18.04647787      29.09462569      35.55984273 
H      19.82582858      29.18943297      35.54932297 
H      33.96866019      30.80236526      24.24378555 
H      33.88640081      32.07613853      22.98057675 
H      33.23023462      32.38292116      24.61810869 
H      35.62237061      28.31769544      21.40174354 
H      34.87186136      29.52419079      22.47445243 
H      36.58539599      29.06129122      22.72175336 
H      31.76654726      29.25907687      33.38965694 
H      33.06918284      30.07890997      32.47691616 
H      31.90249485      31.04468200      33.42763954 
H      21.84576540      11.41306108      23.61647311 
H      20.90847620      12.74657981      22.87867809 
H      21.99898113      11.75273688      21.85920267 
H      33.40589395      17.09685952      19.35992791 
H      34.30345183      18.20809801      20.44162614 
H      32.95907796      17.22391975      21.08072635 
H      27.31993708      12.70118951      17.29538597 
H      29.00513653      12.30986903      17.77311441 
H      27.80052274      12.77426911      19.01673113 
H      13.22662135      30.26419610      30.15277706 
H      14.08182864      28.68077453      30.19006354 
H      14.48929434      29.94496744      31.38180905 
H      32.88776130      19.88350608      31.98686385 
H      33.12743717      20.06846007      30.22673272 
H      33.97642554      21.15694770      31.35276338 
H      19.55383292      24.94154753      13.00392727 
H      18.48566203      26.31778168      13.40761367 
H      19.57711291      26.42461900      11.98756435 
H      15.74438877      28.90236668      16.92128557 
H      16.24033372      28.92050635      15.20728606 
H      14.94763181      27.80366712      15.75454338 
H      27.07750400      10.62251809      22.71551654 
H      25.61779966      11.63347044      23.00870811 
H      25.97955029      11.04053304      21.36413306 
H      14.27754906      33.89534811      26.39725134 
H      14.91745036      33.02965965      27.82794436 
H      15.13842893      34.80205662      27.67298184 
H      14.55799049      21.63664159      33.31426795 
H      14.09901301      20.14660714      32.43133622 
H      15.78821724      20.38293486      32.95295877 
H      21.69911047      16.27609007      13.50319686 
H      22.57395042      15.25594411      14.67771331 
H      20.86173913      14.89437580      14.27464445 
H      22.23465683      29.76965689      13.02072108 
H      23.20967013      29.91537318      11.52135171 
H      22.49393899      28.33683439      11.99049590 
H      19.01528761      20.66391173      12.71017708 
H      20.53597966      21.32853851      12.03610559 
H      20.60012191      20.09694801      13.32159037 
H      22.70091413      33.22039504      15.04331506 
H      20.99499847      33.69553640      14.73322073 
H      21.56047533      33.41096458      16.41135095 
H      23.87837336      36.14733163      28.22548592 
H      24.85999132      35.19838874      27.05846068 
H      23.16840960      35.62335653      26.66317369 
H      12.04921310      16.90118904      30.54673436 
H      12.14697460      18.67726845      30.34412334 
H      11.31228151      17.68096591      29.11481534 
H      26.16523831      34.77331864      20.88608224 
H      25.68136013      35.51632489      22.44623573 
H      26.69157351      34.04093238      22.43675328 
H      29.71531438      21.11755996      12.52990113 
H      28.96135168      19.65895083      11.81651007 
H      28.78833257      21.24318536      11.00334354 
H      15.38658290      21.27793548      15.54434075 
H      16.15705757      22.51973113      14.49916964 
H      17.17035525      21.33225238      15.36851818 
H      28.36010516      15.85978575      15.25214737 
H      27.97637100      15.50414429      13.53685162 
H      28.48401592      17.15440672      14.02447350 
H      16.26004174      12.36316406      30.23374336 
H      17.79669890      12.23353001      29.32318888 
H      17.82014644      12.36957060      31.10705844 
H      30.82750592      13.74112863      30.86731295 
H      29.81430383      14.80371877      31.89382453 
H      29.56337108      13.02803099      31.90765730 
H      27.15757311      35.53599913      29.45808047 
H      26.48192338      35.64191556      31.11119835 
H      28.25344575      35.58367629      30.87398942 
H      32.99177203      28.73131602      17.42078456 
H      31.68597031      29.66402223      18.19839511 
H      33.40019707      30.08318677      18.52022812 
H      26.72783433      15.90026191      33.97872187 
H      25.28589219      15.58722083      34.99569225 
H      26.37993567      14.23502153      34.54735352 
H      12.77255526      29.68926564      21.39258024 
H      12.98377685      31.25670942      20.55792186 
H      11.96708669      29.98766681      19.81780600 
H      12.33156895      27.53094511      25.77273085 
H      11.10615656      26.57116838      26.63901577 
H      11.91622497      27.94221783      27.45940508 
H      36.14761027      20.19576099      25.82972690 
H      37.06202194      20.22173997      27.37191949 
H      36.26385220      18.71646104      26.83442506 
H      30.03597721      25.68964327      14.82094788 
H      31.72752262      25.10589014      14.79070559 
H      30.49376452      24.36530124      13.72208727 
H      19.55604901      23.80069318      35.70874531 
H      19.18417742      25.17821884      36.79947248 
H      17.86110520      24.21307757      36.07954058 
H      36.73276623      25.69646221      25.39058694 
H      37.47841920      24.34152987      26.30256335 
H      36.21040162      24.01398960      25.07933247 
H      19.69150009      19.99328643      36.83076142 
H      18.61499204      19.07634812      35.73244821 
H      20.36565743      18.72676632      35.74989792 
H      32.57211934      24.50457848      32.46656117 
H      33.36632484      26.10585333      32.64165910 
H      31.58973968      25.94651502      32.86619635 
H      25.52741384      19.33611707      11.65962926 
H      24.80518781      17.76110875      12.09629203 
H      24.09291060      18.73214068      10.76085032 
H      14.71157692      33.46098261      21.76888725 
H      15.58668790      34.37794017      20.50637193 
H      15.53173589      32.58238196      20.44155157 
H      15.33644726      26.25254483      33.04323395 
H      14.15543089      25.20574728      32.18664857 
H      15.82745081      24.63164089      32.45999463 
H      11.13846100      26.72349861      20.65114978 
H       9.71940575      26.86214956      21.73852731 
H      10.67033953      28.31638683      21.32552408 
H      22.31513344      12.12884618      17.39392495 
H      22.30228992      13.40642040      16.15334653 
H      23.25790459      11.91571881      15.88067888 
H      12.39533508      23.70533676      17.30301449 
H      12.25445978      25.46363836      16.99574512 
H      13.86093792      24.65421848      16.93606725 
H      22.61880934      11.96505807      28.19229289 
H      21.38367210      11.58552759      29.44107674 
H      20.89828690      12.35543814      27.89064085 
H      16.58738012      15.29985963      32.63010445 
H      17.51681621      15.94970494      34.01136823 
H      15.72676754      16.11110696      33.98417172 
H      13.48527783      16.06976029      21.38636597 
H      14.01630422      14.66538325      20.40062640 
H      14.02913757      14.56994638      22.18787583 
H      13.00604696      13.81713537      26.44901984 
H      12.99915074      15.40480473      27.29384814 
H      12.64711919      15.32836440      25.54308928 
H      27.76467946      32.37131855      15.84555460 
H      26.89368240      33.75730203      15.11498154 
H      27.25701876      33.73280230      16.87311789 
H      31.72792500      14.10805103      24.59668596 
H      32.15038313      13.65513251      26.27724770 
H      31.61812390      12.39507340      25.12360976 
H      18.35506483      13.02346064      18.00634691 
H      18.15837555      12.58374491      19.72933680 
H      17.78540657      14.24353601      19.19414406 
H      28.85430488      34.99176654      24.76475434 
H      28.92108512      34.92328376      26.55527215 
H      29.57709902      33.57424970      25.59135758 
H      11.88197256      23.40506324      28.55196493 
H      11.07225329      21.80622215      28.67180978 
H      12.63895743      22.09402469      29.50509752 
