699
Properties=species:S:1:pos:R:3 i=153 optimized=T E=-10972.8144668138 pbc="F F F" jobid=279_84-Ag-20_1-000003-PBE
Au      33.16606942      25.53946755      26.05625455 
Au      32.12928832      29.44806190      21.62440042 
Ag      34.46147340      28.20105013      25.46002493 
Au      29.94839509      14.92660514      19.72911224 
Au      34.16664959      19.52020442      23.83826187 
Ag      26.82985275      23.33358659      13.14709002 
Au      18.22704006      33.29021424      28.16257456 
Ag      28.32048582      29.87223067      17.76372842 
Au      24.93724548      21.22743772      23.25933258 
Au      26.31185189      23.25928082      24.97111391 
Au      28.24496232      25.15138690      23.66069733 
Au      23.78266726      21.56492968      29.07046489 
Au      23.37120309      27.86658189      27.00292289 
Au      26.93083417      23.08479268      22.01506038 
Ag      22.37042213      19.52898064      27.41572272 
Au      27.23616668      21.15098814      26.77065511 
Ag      22.04809351      21.49230439      22.71356991 
Au      21.03593156      23.56428812      20.83573760 
Au      27.68837271      25.30728716      26.63012314 
Au      19.98402960      24.02807443      26.71950226 
Au      25.47091832      21.08441473      20.35454879 
Au      24.35216772      25.71545601      28.82707181 
Au      23.87828602      27.72331880      24.09490528 
Au      26.25051270      27.62216407      27.67611739 
Ag      20.89756358      21.88984671      28.44126770 
Au      22.87750252      23.69328671      27.23089121 
Ag      21.48369659      21.66630112      25.62247745 
Au      19.51722171      19.80766104      26.89242126 
Au      25.85382202      19.09635422      25.12235287 
Au      25.29490977      23.54026247      30.78703509 
Au      23.01595245      25.40728973      19.59030327 
Ag      21.00334642      27.95598559      23.56889217 
Au      26.69591172      27.41703055      24.76924765 
Ag      22.57704548      21.34930638      19.79520792 
Au      21.93644192      25.86932234      25.40213428 
Au      27.25113724      25.43512685      29.51599029 
Au      20.15570140      19.65409623      24.04726189 
Au      25.92136241      25.12500394      20.18545224 
Au      23.52905407      19.19989749      21.62399240 
Au      22.36096436      23.91422061      30.05878710 
Au      21.05809248      17.45876813      25.84006116 
Ag      21.57964144      27.71821344      20.59262487 
Au      24.43246096      27.45196875      21.25885254 
Au      24.49188098      23.11369797      18.49148558 
Ag      28.66310452      23.12223041      28.50964737 
Ag      18.61981977      21.92210644      25.09194516 
Au      26.68340541      21.23318042      29.69884543 
Au      22.43251160      30.04954667      25.16206725 
Au      27.33543874      27.24860985      21.85075125 
Au      21.79481940      19.71063300      30.26606603 
Au      18.50570256      26.37899078      27.71257671 
Au      23.17862329      21.66804536      31.97659943 
Au      21.60742374      23.45529728      17.86666057 
Au      17.07876895      24.25891328      26.14589003 
Au      27.45767501      22.83452610      19.08099678 
Ag      23.89086925      17.17708118      26.33593483 
Au      23.25454897      17.41396999      29.29039055 
Ag      25.25710391      29.77708619      25.81169037 
Au      21.66153649      17.21980669      22.90290341 
Au      28.81963839      18.76286379      25.68964243 
Au      22.88608178      29.80934549      22.26144742 
Au      25.37388943      25.36558828      23.08217549 
Au      20.10886124      25.68400586      18.95425333 
Ag      29.60041757      27.20706342      25.41493495 
Au      19.38223967      24.27629408      29.56897335 
Au      17.95783390      22.13048428      27.91759091 
Au      20.00756336      28.34118763      29.42539874 
Au      23.76763256      25.83762707      31.69871903 
Ag      20.95386688      26.34871979      31.26350789 
Au      26.42469084      18.99135161      22.12357473 
Ag      24.64278147      19.41976657      30.95134536 
Au      20.31235242      17.57443842      28.74839936 
Au      28.90280286      24.91275671      20.77102677 
Ag      19.57536659      30.26561565      24.62260074 
Ag      25.74191366      29.62336475      22.86119387 
Au      24.96542778      27.17169557      18.25742293 
Ag      28.42789396      20.79642851      20.87801771 
Au      29.12073616      27.46620088      28.31165392 
Au      30.07340909      20.90306623      27.29812725 
Au      18.16567683      23.87685754      20.33243764 
Au      17.68868987      19.62870426      20.62628235 
Au      25.73990835      27.71675747      30.56737381 
Au      28.17265154      23.42774697      31.36604442 
Au      21.91092546      30.10945892      28.12925718 
Au      21.79914334      24.11334026      32.93585150 
Au      18.70685133      28.00156160      20.08521367 
Au      16.21115643      21.87100840      21.63161540 
Ag      30.54927542      25.13481683      27.21120172 
Au      23.42430815      23.49108684      24.35504606 
Au      20.07282440      30.04545920      21.66414633 
Au      16.54940071      19.99994974      26.41546939 
Au      26.75870781      17.00473475      26.97165435 
Au      30.01106615      25.20902198      30.07387463 
Ag      17.61168965      28.46621581      25.86941263 
Au      16.24640622      26.37241064      24.25590636 
Au      28.55314132      29.26111619      23.48196202 
Au      27.84213402      27.05825314      19.03279813 
Au      24.09668056      19.11646504      18.64531261 
Au      27.41612584      16.85554326      24.01826426 
Au      26.95622410      18.79960151      19.19145216 
Ag      26.02549440      21.37723117      32.67947470 
Ag      12.62023808      18.96861094      21.88286814 
Ag      23.00203584      21.14207144      16.85052625 
Ag      26.31950768      29.26879411      19.94827804 
Au      19.87878208      19.63314779      32.44753550 
Ag      26.12994439      17.09997326      29.87949618 
Ag      29.29767198      18.69670844      22.74187781 
Ag      27.66759310      29.79840157      29.38875611 
Au      15.13737022      22.43017905      27.36761192 
Au      26.02945491      20.84457625      17.30694209 
Au      24.55126566      23.81154524      33.60313126 
Au      23.56585347      25.18420212      16.49343096 
Au      17.49489315      17.84090918      28.14802240 
Au      19.08442250      30.46785937      27.48498804 
Au      23.54132973      29.52981747      19.37477866 
Au      22.45246350      25.62317413      22.48311998 
Au      16.12276910      19.99240535      29.33494614 
Au      27.49111012      19.13732772      31.44079769 
Ag      29.23249359      29.17010406      20.61723232 
Au      16.46978272      24.38029469      28.99693460 
Au      31.99443399      22.87599219      26.08525585 
Au      16.64597011      21.65630282      18.74549904 
Au      24.94676374      31.66883690      20.82586560 
Ag      22.02932938      31.81892708      20.35798881 
Ag      20.71681875      25.51065556      16.01340713 
Ag      24.31630066      31.93703200      23.99014214 
Ag      20.66776206      29.82299606      18.73402510 
Au      23.18554183      14.98563639      21.58634855 
Au      30.29205985      22.61746520      19.52485234 
Au      25.01705826      22.89449956      15.49490042 
Au      18.82000734      23.68270317      17.28548375 
Au      28.89764507      20.65623246      17.96322383 
Au      17.61034227      22.43941659      31.01651176 
Au      17.17583039      28.67173872      28.72946548 
Au      27.94089024      16.75714784      21.04711217 
Au      15.66390494      26.77014773      27.13667383 
Au      18.81572680      15.57911715      27.09316415 
Ag      19.62000591      15.41582817      24.00053556 
Au      18.02367704      26.73641554      30.76584167 
Au      20.26517948      15.39503516      21.20837794 
Au      27.25306629      31.58548819      24.41071780 
Au      24.75374696      15.23154211      28.28155423 
Au      23.95775413      23.32510026      21.43950646 
Au      20.12274204      21.10596451      16.32675092 
Au      27.80033271      22.70385211      15.94803404 
Au      31.28419944      20.48348394      21.65250392 
Au      26.73567446      31.77529531      27.54560166 
Au      25.67821939      14.95030290      25.21038845 
Au      28.75663333      16.24646580      28.90188732 
Au      26.06468576      14.90141462      22.31772144 
Au      32.55127728      22.58440980      23.27181649 
Au      25.70135472      30.48600543      31.42102119 
Ag      22.90277232      30.85909608      30.83395260 
Au      24.12079569      16.77149345      31.93289291 
Ag      31.35534680      17.84670154      24.73188695 
Au      17.12145186      26.01931848      18.59683263 
Au      31.67595818      22.82279437      28.81460884 
Ag      29.37755990      15.96287417      25.99426693 
Au      15.58145090      29.19436793      23.91630988 
Ag      16.08526442      29.00605378      21.03689934 
Au      17.05445015      31.21889382      25.53968099 
Au      29.42169789      24.97554218      17.90171145 
Au      30.75603715      18.04185364      27.61318345 
Au      18.49599874      17.51934306      30.89918229 
Au      23.99412421      19.72415537      33.74267995 
Au      18.12711228      30.79298727      19.77555081 
Au      17.49240115      31.02924769      22.65790746 
Ag      14.15424436      27.08424799      22.40884024 
Au      32.62854310      20.01147616      26.34682471 
Au      24.81543831      25.55078967      25.97769683 
Au      33.03392126      26.74146810      23.17601739 
Au      24.83075952      20.01615099      14.95785246 
Au      20.09490658      31.07375342      30.14441621 
Au      31.79595327      27.81561650      27.22845795 
Au      23.81826193      28.54369865      32.58939554 
Au      29.85376614      15.90253446      23.06325870 
Au      22.51718537      16.94482040      34.54213712 
Ag      13.87700542      19.41506308      27.56437337 
Au      24.09257730      27.89995588      15.59768873 
Au      15.00904494      17.49161358      30.59387767 
Au      25.62148164      25.64754058      14.60929548 
Au      29.12095781      30.47092098      32.32576475 
Au      22.74934171      30.22471182      16.78836508 
Au      21.93845172      21.72041172      34.93849418 
Ag      31.26589966      28.18058630      30.23716755 
Au      19.25520270      13.95976608      29.54628191 
Au      22.07071907      25.23039953      12.76594305 
Au      15.97411394      14.75957524      28.05210917 
Ag      25.00956984      32.78105777      29.65773857 
Au      26.85498960      14.52720503      31.24057308 
Au      28.70081998      13.31692088      24.06859611 
Au      16.20203777      17.05247868      19.38969418 
Au      16.15450179      17.21687498      23.20469823 
Au      20.70288936      15.35106645      17.68649536 
Ag      12.02117816      24.60027637      23.06497604 
Au      14.63091285      30.23978002      27.04778153 
Au      24.34540668      21.34834775      26.18172398 
Au      14.95532307      19.81221076      20.05998056 
Au      25.50466797      31.24923328      18.11899061 
Au      28.63614328      20.32673526      14.39591362 
Ag      30.24582794      27.13260011      22.53695195 
Au      31.08268545      24.99839411      24.26563354 
Au      31.86771180      24.81626053      21.49748008 
Au      20.55216344      23.77419734      23.81589248 
Ag      25.26448367      14.86920722      16.18695363 
Ag      30.72484602      29.83843771      25.23417396 
Ag      25.76151162      23.38536978      27.89116538 
Au      27.03965713      27.60115418      16.34942857 
Au      20.84905726      31.42619481      33.19101296 
Au      17.73055421      23.98171881      23.26871395 
Au      22.98595983      19.31674322      24.51089035 
Au      27.80330776      20.94361705      23.83211072 
Au      19.62143721      25.93913868      21.92119181 
Au      25.05023930      30.91718896      14.81748439 
Au      25.18564567      19.23735713      28.03233516 
Au      19.07800378      26.13011593      24.82336299 
Ag      20.50100569      28.15661735      26.45761782 
Ag      21.42247388      26.02517160      28.31259798 
Au      29.14911152      23.09383623      25.55678208 
Au      19.18541129      21.72011061      22.16082732 
Au      24.54752317      17.04151740      23.44480089 
Au      22.90553898      28.06517558      29.92804699 
Au      20.69529102      19.48372287      21.11766402 
Au      20.42016653      22.17199814      31.30477192 
Au      24.82163175      29.96210559      28.77942389 
Ag      18.09176300      28.26407292      22.96851340 
Au      28.11696022      18.96752362      28.59365342 
Au      18.96971105      20.12388406      29.74762055 
Au      29.78157491      22.80132230      22.61761031 
Au      19.64187985      21.56933796      19.18481291 
Au      18.22191167      17.68924070      25.22052851 
Au      15.73344697      22.11342901      24.51950430 
Ag      16.71503801      26.18874520      21.40512389 
Au      26.50929503      24.90767123      17.29133839 
Au      28.08375789      29.49819505      26.37068020 
Au      17.21894297      19.84401488      23.53699376 
Au      18.83749002      17.61359138      22.35958500 
Au      30.67511137      20.68871875      24.43059356 
Au      22.11720005      27.51137428      17.69440691 
Au      21.20004949      19.31107106      18.22900538 
Au      22.24039729      17.19133888      19.83674583 
Au      21.83954365      15.38638053      27.61026083 
Au      19.01772036      24.46209562      32.42082914 
Au      26.46439970      25.59693816      32.57729766 
Au      14.90627840      24.26362158      22.67134518 
Au      29.60086921      20.75360393      30.17594528 
Au      23.76323845      31.96640449      26.85251285 
Au      22.46044943      15.14373191      24.82678660 
Au      25.05021082      16.89667834      20.42803904 
Au      28.53564710      27.73100243      31.16047073 
Au      19.30877165      17.45069138      19.50223852 
Ag      27.72657408      31.36897163      21.67642236 
Au      15.38703887      24.07763181      19.86734299 
Au      21.29846726      17.13349295      31.45762407 
Au      21.29747407      32.07281039      23.21595477 
Au      14.16136237      24.56143372      25.30425833 
Au      22.28291487      23.13489018      14.86270680 
Au      30.65097984      26.85179556      19.64850733 
Au      18.34509286      19.42128116      17.70885136 
Ag      22.92663819      18.12073954      16.29307738 
Au      15.47230813      17.40751937      26.07553673 
Au      30.27479813      30.06496878      28.14545278 
Ag      29.79689329      18.42402671      19.76463373 
Au      13.55656506      21.71620266      22.65669453 
Au      30.50447888      17.52838128      31.01672859 
Au      26.87497448      15.96725978      18.49690326 
Ag      20.87917470      32.35522510      26.42450334 
Au      19.35127411      27.87176924      17.16831729 
Au      25.87387323      17.95678932      16.64039112 
Au      14.41920818      19.52396608      24.41453517 
Au      19.03814240      33.49265688      20.77776751 
Au      23.77727576      21.94404835      12.40080819 
Au      34.60724168      22.64514426      27.54488056 
Au      28.74121683      32.98354397      29.46556537 
Au      19.39109574      31.44322509      16.57926923 
Au      23.61529944      14.99844348      18.78504769 
Au      13.78903718      27.15633979      19.42897161 
Au      20.94951612      26.76787388      34.37793544 
Au      19.51128601      28.63439901      32.20025615 
S      20.72147068      15.84921320      33.48743116 
S      28.97314472      31.57955050      19.48654411 
S      23.90705447      22.80168514      35.74154776 
S      24.27561093      18.13793815      35.56444971 
S      12.37280715      18.19495492      24.16002857 
S      32.27237659      17.44104746      29.45013840 
S      31.51355427      15.01822822      21.49307329 
S      29.88943293      19.34579362      16.14302353 
S      28.37526048      21.99237910      33.32871652 
S      23.03443470      27.84690986      34.77932342 
S      13.52557297      30.09327650      24.97211659 
S      16.42664461      17.98076923      17.20458166 
S      32.65183400      23.26464738      19.77005995 
S      27.04919566      30.74754115      33.42392151 
S      22.90898446      32.48194750      32.79259103 
S      17.28024466      31.56345086      17.61572443 
S      11.21687934      22.30713691      22.72738983 
S      25.09707214      13.25365590      26.86537433 
S      33.81753850      29.24661439      27.52829250 
S      28.58858086      26.51865355      33.33486939 
S      23.75321489      24.13107841      11.51586037 
S      27.26457244      25.78364097      12.84648587 
S      19.25567337      33.35280047      30.28585887 
S      28.86063724      17.54229448      32.71941395 
S      21.30292330      34.04902281      24.60415298 
S      30.64724772      32.45105703      28.17707524 
S      29.00974819      28.78464424      15.60061533 
S      33.67001576      17.22165233      23.99216332 
S      34.84538292      21.77218976      23.56191083 
S      19.15469319      13.60306653      25.62677764 
S      20.88036192      33.78098749      19.33483389 
S      12.64155100      19.46006565      19.51258089 
S      18.78195185      30.39970569      33.69572085 
S      31.83244898      31.04021618      23.35521565 
S      35.37316622      27.35458585      23.38768708 
S      31.36118022      30.25562049      31.62708025 
S      23.08918058      13.28566433      23.35195829 
S      32.14221494      19.29178071      19.72540100 
S      28.66282488      14.47660659      17.79998201 
S      15.54491452      30.43413804      29.21879844 
S      31.56353082      21.89914480      31.07124276 
S      20.36017129      26.50484736      13.73993876 
S      17.15691967      27.07904268      16.39052242 
S      27.45728231      12.89796036      22.09972944 
S      16.96145687      33.59808352      26.19836552 
S      15.33703011      21.57224934      31.06421617 
S      21.07316143      16.58325853      15.68644568 
S      24.53518730      29.05650590      13.47406586 
S      20.07479289      22.21412068      14.17423025 
S      21.36261532      31.57148577      15.30689959 
S      23.12046907      33.82728582      28.31360928 
S      13.22524695      17.50486818      29.05934970 
S      24.43100653      33.65363785      22.14701232 
S      27.54703378      21.08410123      12.44699907 
S      16.51684452      23.02807829      16.72126026 
S      26.08081890      16.53495518      14.65060609 
S      16.95865906      14.08448477      30.08787730 
S      28.69458023      14.00392363      29.86849223 
S      26.97804306      33.91925640      30.71568713 
S      32.69637285      28.18478327      19.69333584 
S      25.13899666      14.74178545      32.82710166 
S      14.18133672      29.47497621      19.48502753 
S      13.40657599      25.82977868      27.23726097 
S      34.52117573      20.30587902      27.88236259 
S      30.07307914      23.71051720      15.93906257 
S      18.80710351      25.73931781      34.50211956 
S      35.19294801      24.91987036      27.27099253 
S      19.84011796      20.62260879      34.66514733 
S      32.28801535      25.90175789      30.55454105 
S      23.63936678      19.63514878      12.89312131 
S      17.16810998      33.45138540      22.21626381 
S      15.67940596      26.01991335      30.64782745 
S      11.72705780      27.01107552      22.98517437 
S      24.35844216      13.07975396      17.53348129 
S      13.17287290      24.88554236      19.19624192 
S      21.55176489      13.55299759      29.22787089 
S      16.57290652      17.47805541      32.36512271 
S      15.70814111      15.75167580      21.32548078 
S      14.79924480      15.07364214      26.03200633 
S      25.65687956      32.72495076      16.19648773 
S      29.94514539      13.51917243      26.05939644 
S      20.10914365      13.77228869      19.37167402 
S      26.95259999      33.57793859      25.82996144 
S      12.83328358      21.68809425      27.30924530 
C      21.27069574      14.12233109      33.20529969 
C      30.65414176      32.33014304      19.42983547 
C      23.31649930      24.19029226      36.78767015 
C      23.59545764      18.93577806      37.07030783 
C      10.97576642      19.17309169      24.83563762 
C      32.65430265      15.66107724      29.22409336 
C      31.83656450      13.24273643      21.82913473 
C      31.55526559      20.08795725      15.93957471 
C      28.20305652      23.02978615      34.83017058 
C      22.65386847      29.34145548      35.76804021 
C      13.37591721      31.81959405      24.36756270 
C      17.05602511      16.61478486      16.15403077 
C      33.13302793      24.29029910      18.33323703 
C      26.94626483      32.47688597      34.02070621 
C      22.47147026      34.17113897      32.22252055 
C      16.96338165      33.37096541      17.65215976 
C      10.61046942      22.33096970      20.99298948 
C      26.62734826      12.38221522      27.35706915 
C      34.87424863      28.44440034      28.79735697 
C      28.20260946      27.62872139      34.73986603 
C      22.98002738      23.91814771       9.86064139 
C      26.47586464      26.46623519      11.34255141 
C      17.80684572      33.29710336      31.41335933 
C      29.59468192      18.49727814      34.10333985 
C      19.82538568      35.06389076      24.23225784 
C      32.13531537      32.81360823      29.18364076 
C      28.53906150      29.74256573      14.11245630 
C      34.52429483      16.63433451      25.50764624 
C      35.59046790      21.84024436      21.88575047 
C      17.53986376      12.85438457      25.19005248 
C      21.73908329      35.27836639      19.96253562 
C      12.53130465      17.88833062      18.56918122 
C      18.87474517      29.78838921      35.42227575 
C      33.52310913      31.54466788      23.86065645 
C      35.74020027      28.77885378      22.29031367 
C      32.23195882      29.71138656      33.15214959 
C      21.59470897      12.28851751      23.00419279 
C      33.33276872      18.02307586      20.29641161 
C      28.07873734      12.76383021      18.11477338 
C      14.30968609      29.65661164      30.33169248 
C      32.93110472      20.69537982      31.25150110 
C      18.82008305      25.71086203      13.13555189 
C      15.95195776      28.45239651      16.35672521 
C      26.37147842      11.47986724      22.52141882 
C      15.30086681      34.01386071      26.86176629 
C      15.14008484      20.72424909      32.67598592 
C      21.72798966      15.37158560      14.47298365 
C      22.92669854      29.39621192      12.66560360 
C      20.22096044      20.93411906      12.87208849 
C      21.89380063      33.31213822      15.54311263 
C      23.75442024      35.32222611      27.46152831 
C      11.81021882      18.17751314      30.02030909 
C      25.99109086      34.61377704      22.19440319 
C      28.92840638      21.37784951      11.26903410 
C      16.51502125      21.84215641      15.32693558 
C      27.87203801      16.20664103      14.42484698 
C      16.47980959      12.31404696      30.22932626 
C      30.04363639      13.77605599      31.09291539 
C      26.87943500      35.64479987      30.09056884 
C      32.55622158      29.33120123      18.26534298 
C      26.06585123      15.16579089      34.35174366 
C      12.81883302      30.18414560      20.49166303 
C      12.20078334      27.07559303      26.65580824 
C      36.08395423      19.73080353      27.11036742 
C      30.22338526      24.91954444      14.57344203 
C      18.96485183      24.50656834      35.85435027 
C      36.51415498      24.81187314      25.99832162 
C      19.84268516      19.26425445      35.89474302 
C      32.43194574      25.58648753      32.35620023 
C      24.77745368      18.76415634      11.75101158 
C      15.68488580      33.54801740      21.14084990 
C      15.30891977      25.17014296      32.22376808 
C      10.63510452      27.24626517      21.52549084 
C      22.89853795      12.36379536      16.67985356 
C      13.06158327      24.60526594      17.38605269 
C      21.58115204      12.05193415      28.17497256 
C      16.49462713      15.85500775      33.20878328 
C      13.90461967      15.43387379      21.26936017 
C      13.00988140      15.00233344      26.42102326 
C      27.43364030      33.06128589      15.88537950 
C      31.71073619      13.39637486      25.57139272 
C      18.31881628      13.45542448      19.11850298 
C      28.59569744      34.38670677      25.90779409 
C      12.14028747      22.19020987      28.93083142 
H      22.30924792      14.08162385      32.86125282 
H      21.16630656      13.57610091      34.14991697 
H      20.61074159      13.69004248      32.44220152 
H      31.07990512      32.18278595      18.43176214 
H      30.54657453      33.40321513      19.62597946 
H      31.30425353      31.87625796      20.18846840 
H      24.19558160      24.77111778      37.09139907 
H      22.62555751      24.83989847      36.23836155 
H      22.82378814      23.77155694      37.67252639 
H      23.39542968      18.15862314      37.81644821 
H      24.35984900      19.62752381      37.44371457 
H      22.68286916      19.49913940      36.84870071 
H      11.10177641      19.25970932      25.92138067 
H      10.93015539      20.17253707      24.38840753 
H      10.05414591      18.62402804      24.60812391 
H      33.43080421      15.59141002      28.45271155 
H      33.03721930      15.25818803      30.16853211 
H      31.76623070      15.10595830      28.90462312 
H      30.91965119      12.72176766      22.12733420 
H      32.25479832      12.79007688      20.92315883 
H      32.57436838      13.19061639      22.63822220 
H      31.48710278      21.17493003      15.82011130 
H      32.12998027      19.84613516      16.84256001 
H      32.02575721      19.63636224      15.05877802 
H      28.13145643      22.35663512      35.69289039 
H      29.09061939      23.66619837      34.92147561 
H      27.30538077      23.65838069      34.77568715 
H      21.99484428      30.02968368      35.22070373 
H      22.18892967      29.03224297      36.71123688 
H      23.60744490      29.84266065      35.97381823 
H      12.71666706      32.37588645      25.04340615 
H      14.35717242      32.30255579      24.30855280 
H      12.92398982      31.77370182      23.36927496 
H      17.27549412      17.03365877      15.16478694 
H      17.97030391      16.17573405      16.56979566 
H      16.27048904      15.85504290      16.07128662 
H      32.34087893      25.00569664      18.07769401 
H      34.05434123      24.82677124      18.58783790 
H      33.30758975      23.61758964      17.48500134 
H      27.22171996      33.19100339      33.23817686 
H      25.90766812      32.64877651      34.32912600 
H      27.61553487      32.57384584      34.88328297 
H      21.71305082      34.14711934      31.43305479 
H      22.10544081      34.74756398      33.07936983 
H      23.38987188      34.62713685      31.83245135 
H      15.98797037      33.52645839      18.12707865 
H      17.74217621      33.90054321      18.21348044 
H      16.92801551      33.73131315      16.61794169 
H      11.26845071      22.92485598      20.34980839 
H      10.55841736      21.30221828      20.61766082 
H       9.60789358      22.77520847      21.00563255 
H      27.45345126      13.07700153      27.52999610 
H      26.42182831      11.82685265      28.27995152 
H      26.89810825      11.68753717      26.55252951 
H      35.86643447      28.90840860      28.75181169 
H      34.42365868      28.62587688      29.78061525 
H      34.95993671      27.36522266      28.62965089 
H      28.13724879      27.00735141      35.64126775 
H      29.01480958      28.35813580      34.84552358 
H      27.26014497      28.16171036      34.58509726 
H      22.85499495      24.91388680       9.41936742 
H      23.66016583      23.32041156       9.24338014 
H      22.00900715      23.42054963       9.93397718 
H      25.63799717      25.84334476      11.01400374 
H      26.12366801      27.48192045      11.55857810 
H      27.24794506      26.49523179      10.56354896 
H      18.18262053      33.11696101      32.42792611 
H      17.30309484      34.26931199      31.36472940 
H      17.11322818      32.49998698      31.12722532 
H      30.46297333      17.94925146      34.48555507 
H      29.88159822      19.50455771      33.78303156 
H      28.82822148      18.57218258      34.88439298 
H      18.89598033      34.49975897      24.34865970 
H      19.82599437      35.90341868      24.93870659 
H      19.89993292      35.44146070      23.20541230 
H      32.05267697      32.38556403      30.18777619 
H      32.99253976      32.37077988      28.66191178 
H      32.24687538      33.90274359      29.23575567 
H      29.35776926      30.43409384      13.87873752 
H      28.39854291      29.03948760      13.28248746 
H      27.60767450      30.30624804      14.26442289 
H      34.24965811      15.58156662      25.64685387 
H      35.60794119      16.71148314      25.36580436 
H      34.21493325      17.21283350      26.38485038 
H      34.89390913      21.47395756      21.12446204 
H      35.82989412      22.89069573      21.68058254 
H      36.50816273      21.24153151      21.88759516 
H      17.04513028      12.50175105      26.10305265 
H      16.88518260      13.56801717      24.68130651 
H      17.74401741      12.00455311      24.52696801 
H      22.63679567      35.41485162      19.34741524 
H      21.07850546      36.14462383      19.84950212 
H      22.04149086      35.15638259      21.00787057 
H      12.79238109      18.10363212      17.52651305 
H      13.22250665      17.13324403      18.95778365 
H      11.49957666      17.52311791      18.62778393 
H      18.93841394      30.64946980      36.09683860 
H      17.95249981      29.22770542      35.61560476 
H      19.73346828      29.12293798      35.56516041 
H      34.10246313      30.69644006      24.24906655 
H      34.04112250      31.99464721      23.00637924 
H      33.41147143      32.29302697      24.65459872 
H      35.92249968      28.38717820      21.28284021 
H      34.90204627      29.48364291      22.24846508 
H      36.63938227      29.28211089      22.66362996 
H      31.78977444      28.79600453      33.55751857 
H      33.27926947      29.52330760      32.88655597 
H      32.18252572      30.51147340      33.89928513 
H      21.34445902      11.72483155      23.91049242 
H      20.74865440      12.92879529      22.72360244 
H      21.82994707      11.60397136      22.18077623 
H      33.58939641      17.40025291      19.43061408 
H      34.23161440      18.52626145      20.67226183 
H      32.91556964      17.38683115      21.08171099 
H      27.28538801      12.53855187      17.39200160 
H      28.92875996      12.08820486      17.96538782 
H      27.69294330      12.66179617      19.13441221 
H      13.40298957      30.27167697      30.33366539 
H      14.08003222      28.63326229      30.01751839 
H      14.74925437      29.63563808      31.33629575 
H      32.70055951      20.04825545      32.10664005 
H      33.06446636      20.08402914      30.35468414 
H      33.85073636      21.26053264      31.44572535 
H      18.86657692      24.62228405      13.25370808 
H      17.99689956      26.11202312      13.74051810 
H      18.67432232      25.97299661      12.08192952 
H      16.01178195      29.06935939      17.25703900 
H      16.16778624      29.07272902      15.47859186 
H      14.94681590      28.02098510      16.27520207 
H      26.99919337      10.59678977      22.68476927 
H      25.76751226      11.69258720      23.40931752 
H      25.70794645      11.31386720      21.66409075 
H      14.63071888      34.15537076      26.00565798 
H      14.91682689      33.21274979      27.50323311 
H      15.37595649      34.95034034      27.42574154 
H      14.87484228      21.48691493      33.41816573 
H      14.33108553      19.98883473      32.58770397 
H      16.05902229      20.21312402      32.97760742 
H      21.89456202      15.91436229      13.53442923 
H      22.67803322      14.93399220      14.80547774 
H      20.98688963      14.58105451      14.30961623 
H      22.22503054      29.88186663      13.35122022 
H      23.11626885      30.04591590      11.80312963 
H      22.51735223      28.43407453      12.33234723 
H      19.21032671      20.56493821      12.65891409 
H      20.64680800      21.39830471      11.97414903 
H      20.86070517      20.10530118      13.18824998 
H      22.91466175      33.40389073      15.15334816 
H      21.21361626      33.95231938      14.96957752 
H      21.86555088      33.59020033      16.60210318 
H      23.70756959      36.16104962      28.16635686 
H      24.78516575      35.17372614      27.11974120 
H      23.11083336      35.52432046      26.59633973 
H      11.55524189      17.47770631      30.82409449 
H      12.04644814      19.15863718      30.44352323 
H      10.95949133      18.27236761      29.33464809 
H      26.27333478      34.90241763      21.17620025 
H      25.80379274      35.51074974      22.79759362 
H      26.79576559      34.02878309      22.65911415 
H      29.67481414      22.05875841      11.68851951 
H      29.39887619      20.41912341      11.02328804 
H      28.49981899      21.82035706      10.36202784 
H      15.52806413      21.36660089      15.28889630 
H      16.70102923      22.40635365      14.40532389 
H      17.29339211      21.08017590      15.45737752 
H      28.33446977      15.83697546      15.34603999 
H      27.97328867      15.45513976      13.63285062 
H      28.35372786      17.14323796      14.11695226 
H      15.39374403      12.27116931      30.37029407 
H      16.76162173      11.75081860      29.33535431 
H      16.98564341      11.89617960      31.10741056 
H      30.95265410      13.51409429      30.53945359 
H      30.21149628      14.68888634      31.67616628 
H      29.76817739      12.94730354      31.75467930 
H      26.73783841      35.66796026      29.00550055 
H      26.02302093      36.12529233      30.57908654 
H      27.79839754      36.17827582      30.35824010 
H      32.77900510      28.75135752      17.36172940 
H      31.54674379      29.74853844      18.18451474 
H      33.29287416      30.13373819      18.38308560 
H      26.75880404      15.99456889      34.17309440 
H      25.33527526      15.44687821      35.11923061 
H      26.62069639      14.27431555      34.66577721 
H      12.73005635      29.68043714      21.46112809 
H      13.05210185      31.24461818      20.64596180 
H      11.87952771      30.09571636      19.93464240 
H      12.50319349      27.52980317      25.70822096 
H      11.23614576      26.57152686      26.52091408 
H      12.11602566      27.85263089      27.42523686 
H      36.13497298      20.01622877      26.05381459 
H      36.92269824      20.16769443      27.66402506 
H      36.11536961      18.63859356      27.20012492 
H      29.48361605      25.72172009      14.66083725 
H      31.23282817      25.34600010      14.62165075 
H      30.08739327      24.39351668      13.62122693 
H      19.81684625      23.83645262      35.69046625 
H      19.08034607      25.04559238      36.80152001 
H      18.04018304      23.91758106      35.87193946 
H      36.72652849      25.82784401      25.64316233 
H      37.40570341      24.38559353      26.47240514 
H      36.20108784      24.18488526      25.15719397 
H      19.91874969      19.69829043      36.89839000 
H      18.88897204      18.73234515      35.79403940 
H      20.66945852      18.56189663      35.71758638 
H      32.48435533      24.50163027      32.51180198 
H      33.35666628      26.05844681      32.70972132 
H      31.57157722      25.99059419      32.90179347 
H      25.72379641      19.30627117      11.64961417 
H      24.96179014      17.76825470      12.17229643 
H      24.27483133      18.68157466      10.78042192 
H      14.80610781      33.47251684      21.79278214 
H      15.67889736      34.51671592      20.62854178 
H      15.67155630      32.73163428      20.41089371 
H      15.20823928      25.93172525      33.00579532 
H      14.36623938      24.62406216      32.09926081 
H      16.10973759      24.46676503      32.48728115 
H      11.07046121      26.80880970      20.62010129 
H       9.66453892      26.78219284      21.73351749 
H      10.49342120      28.32301469      21.37400132 
H      22.37086480      11.72692996      17.39934238 
H      22.21338368      13.14202830      16.32828984 
H      23.25274715      11.76033008      15.83635007 
H      12.86174146      23.53713002      17.23742873 
H      12.23083325      25.19955541      16.98971197 
H      13.99872851      24.87083216      16.88615836 
H      22.60192208      11.95254528      27.78406567 
H      21.33049903      11.18764081      28.80041442 
H      20.86975608      12.14408575      27.34578448 
H      16.49564145      15.03462000      32.48400462 
H      17.37542546      15.78311630      33.85849318 
H      15.57922668      15.83278592      33.81147167 
H      13.32840736      16.36880740      21.26571118 
H      13.67802965      14.84582776      20.37251159 
H      13.64806290      14.85624133      22.16541661 
H      12.72652614      13.94588057      26.49399299 
H      12.78594530      15.52467992      27.35707930 
H      12.47838366      15.48331485      25.59072714 
H      28.02805776      32.14126806      15.89892432 
H      27.52391111      33.55635429      14.91171939 
H      27.78328495      33.72909140      16.68102515 
H      31.97199275      14.15834250      24.82937700 
H      32.30607609      13.55104179      26.47957810 
H      31.90981821      12.39550923      25.17281750 
H      18.19391673      12.91224421      18.17485588 
H      17.97175107      12.83474530      19.95311389 
H      17.74435890      14.38872573      19.09878556 
H      28.67103163      35.06446894      25.04873835 
H      28.66297017      34.95719413      26.84225685 
H      29.40798877      33.65452513      25.87745368 
H      12.00784045      23.27907690      28.92518020 
H      11.16610299      21.70054860      29.04978723 
H      12.80621112      21.90807401      29.75456681 
