699
Properties=species:S:1:pos:R:3 i=76 optimized=T E=-11290.3723644633 pbc="F F F" jobid=279_84-Ag-50_2-000007-PBE
Au      33.18440348      25.41022966      25.93455598 
Ag      31.90721168      29.31960831      21.75123696 
Au      34.54865036      28.18487249      25.39019621 
Ag      29.82101454      14.98861631      19.70431628 
Ag      33.83459023      19.51257559      23.64132248 
Au      27.58318433      23.59545487      12.99166485 
Ag      18.26965971      33.13610066      28.13682217 
Ag      28.38913307      30.54729892      18.06947702 
Au      24.89875400      21.19691869      23.25134346 
Au      26.31709249      23.22202287      24.92826213 
Ag      28.22568319      25.04978745      23.60429667 
Au      23.78657294      21.63155982      29.03241583 
Au      23.43037159      27.83598546      26.97999229 
Au      26.90141949      23.05173796      21.97966348 
Au      22.33104810      19.59983367      27.38762317 
Ag      27.25020629      21.10344362      26.71382639 
Ag      22.03827364      21.48570360      22.71715671 
Au      21.05857316      23.56203228      20.86638528 
Ag      27.70525046      25.23836809      26.54541392 
Ag      19.99893251      24.04688657      26.69949026 
Ag      25.46982081      21.02314895      20.34176526 
Ag      24.34133974      25.73868790      28.82277664 
Au      23.92104807      27.64279769      24.04866781 
Ag      26.26635315      27.54334899      27.58944024 
Ag      20.91749117      21.93101377      28.44212532 
Ag      22.89957935      23.71572587      27.19823301 
Ag      21.47278873      21.70785432      25.60478962 
Ag      19.49454730      19.90055567      26.88812227 
Au      25.81035547      19.07084761      25.08410859 
Au      25.25349759      23.61504938      30.73129002 
Au      23.03619632      25.33969535      19.56383631 
Ag      21.02425214      27.91249889      23.55795274 
Au      26.75508842      27.30389877      24.67037815 
Ag      22.55167234      21.28786956      19.83402856 
Ag      21.99058969      25.83046624      25.36360861 
Au      27.24384249      25.46556217      29.44703499 
Au      20.17060209      19.66418472      24.02296043 
Ag      25.91642928      25.05297318      20.14810009 
Ag      23.50270033      19.18940834      21.65241358 
Au      22.36020118      23.94130316      30.07516110 
Ag      21.01794569      17.50252429      25.81738975 
Ag      21.53469070      27.63933944      20.60969112 
Au      24.44255189      27.36193392      21.19970469 
Ag      24.51723960      23.05071034      18.49797763 
Au      28.67784233      23.13791949      28.41479270 
Au      18.61147824      22.00185330      25.09594690 
Au      26.73795838      21.25471659      29.59092030 
Ag      22.47561559      30.01494555      25.11916767 
Ag      27.27835028      27.10257268      21.76599486 
Ag      21.79973557      19.77909988      30.30760970 
Ag      18.50791287      26.39535925      27.74174934 
Ag      23.17265034      21.75957203      31.93487713 
Au      21.56748556      23.36802842      17.93264508 
Ag      17.06918415      24.35261681      26.21412782 
Au      27.45022239      22.75805507      19.01578453 
Au      23.85280707      17.19476647      26.31065125 
Au      23.22833844      17.51078179      29.30221554 
Au      25.32025935      29.70672778      25.69296607 
Ag      21.59717462      17.22690014      22.95203948 
Au      28.79461611      18.75643741      25.65469790 
Au      22.91979174      29.74655422      22.22682545 
Ag      25.36905020      25.29386734      23.05017491 
Au      20.07764815      25.63685089      18.98580213 
Ag      29.62232424      27.08620455      25.28721729 
Ag      19.41280672      24.28961669      29.58292531 
Au      18.00613821      22.26666207      27.95986738 
Au      20.08845583      28.39085610      29.34787241 
Ag      23.76142207      25.90876930      31.69193544 
Au      20.97641588      26.31334489      31.18650423 
Au      26.36653137      18.92686247      22.15813228 
Au      24.63612906      19.46854998      30.94091027 
Ag      20.38028176      17.73116818      28.74221231 
Ag      28.87363370      24.79917769      20.68674489 
Ag      19.61771338      30.26082337      24.62628299 
Ag      25.80513104      29.51792833      22.76275200 
Ag      24.94106145      27.14227033      18.24680836 
Au      28.42528788      20.71183249      20.84500614 
Ag      29.15315559      27.31965291      28.25844229 
Ag      30.08827886      20.85458778      27.28947631 
Au      18.12202182      23.91134830      20.38365290 
Ag      17.73926642      19.67696454      20.64937948 
Au      25.72988841      27.73409789      30.48423062 
Au      28.15778206      23.38014319      31.26184720 
Ag      22.02195813      30.17834967      28.06065488 
Ag      21.81252539      24.12648957      32.93736111 
Ag      18.67160975      27.94268810      20.09159973 
Au      16.30668276      21.99447733      21.68418874 
Au      30.54933561      25.03070923      27.11698966 
Ag      23.42553056      23.49766885      24.33181745 
Au      20.03801047      29.95978739      21.72445981 
Au      16.54094781      20.11556691      26.45678284 
Ag      26.69228888      17.01341695      26.90202007 
Ag      30.07221457      25.17034532      29.99117025 
Au      17.66083258      28.47038603      25.91230690 
Au      16.27336333      26.39453378      24.34556499 
Ag      28.59691806      29.11747603      23.34647585 
Ag      27.83398295      26.86877042      18.93271764 
Ag      24.07313198      19.00546654      18.71282051 
Ag      27.31140174      16.77412331      23.97591600 
Au      26.92649221      18.74472107      19.23416138 
Au      25.99831757      21.31770059      32.59926662 
Au      12.51896208      18.87862635      21.83955309 
Au      22.99698957      21.03947850      16.99944042 
Ag      26.33573970      29.14676678      19.83216087 
Au      19.92320753      19.64492792      32.43446644 
Au      26.07770159      17.21525726      29.77646540 
Au      29.24076213      18.61517859      22.72609070 
Au      27.67122880      29.60494436      29.25535849 
Au      15.20019880      22.45253191      27.51767483 
Au      26.04634300      20.77146824      17.33488703 
Ag      24.60861938      23.77015757      33.47374196 
Ag      23.56046343      25.11869014      16.61028483 
Au      17.60350500      18.00556268      28.16396605 
Au      19.24684096      30.49100944      27.44276375 
Ag      23.52256172      29.43039187      19.38845216 
Au      22.46533711      25.60005026      22.48329810 
Ag      16.07784293      20.07568001      29.41997420 
Au      27.56518537      19.15949238      31.35589949 
Ag      29.15484339      28.89422716      20.51974939 
Au      16.53604337      24.49661967      29.04672478 
Au      31.99847834      22.73534037      26.04700958 
Ag      16.67028740      21.74234184      18.83816076 
Ag      24.91528896      31.58707593      20.73643693 
Au      21.97678354      31.68243867      20.38978741 
Ag      20.69741221      25.38637341      16.09244779 
Ag      24.41325576      31.81267583      23.84299203 
Ag      20.64906122      29.73256823      18.77885229 
Au      23.06518755      14.99155468      21.69843754 
Au      30.30137166      22.46532590      19.56117138 
Au      25.05265057      22.87011229      15.60610481 
Au      18.72789738      23.62947521      17.37551666 
Ag      28.87072489      20.50270453      17.92440508 
Au      17.60747166      22.47980835      31.01837662 
Ag      17.28153275      28.81832780      28.81397985 
Ag      27.86608170      16.67905900      21.09335376 
Ag      15.58775379      26.94799917      27.10337709 
Au      18.89386342      15.72180942      27.05996045 
Ag      19.61093307      15.39989438      24.09914009 
Au      18.16779084      26.72749344      30.73353053 
Au      20.07411153      15.32909538      21.29196569 
Ag      27.32125575      31.48341122      24.31631582 
Ag      24.80378044      15.17022840      28.33293713 
Au      23.98062510      23.26460691      21.41291805 
Au      20.08807784      21.15178410      16.48495866 
Ag      27.86877928      22.74284762      15.91347147 
Ag      31.36398592      20.33552894      21.61812185 
Ag      26.94770678      31.69587863      27.42981965 
Ag      25.64355171      14.86272074      25.26128245 
Au      28.64062438      16.22670083      28.89127479 
Ag      25.94736562      14.81950030      22.28147025 
Au      32.55643151      22.48346917      23.20849947 
Ag      25.73676636      30.51279542      31.27912578 
Au      22.97219279      30.89838705      30.68719876 
Ag      24.16931910      16.82105170      31.94210668 
Au      31.29799555      17.79525769      24.71040515 
Au      17.04357276      26.00184319      18.68299905 
Au      31.61003656      22.81916122      28.79768225 
Au      29.29887371      16.01631814      25.95609044 
Ag      15.59678814      29.24832681      24.04339961 
Ag      16.10504199      29.00733344      21.14971503 
Au      17.06755215      31.20921349      25.65579268 
Au      29.47778982      24.81590739      17.86020619 
Ag      30.73832293      17.97558187      27.61605744 
Au      18.45483736      17.65898788      30.90868489 
Ag      23.95842487      19.64062292      33.67783124 
Ag      18.10893602      30.75637073      19.84979993 
Ag      17.52742698      31.07953804      22.73752767 
Au      14.22001839      27.15672120      22.51321303 
Ag      32.63890963      19.91522310      26.33494281 
Ag      24.85317101      25.51611713      25.95127918 
Ag      32.95066878      26.68383846      23.14785616 
Au      24.73298485      20.01658582      14.95496181 
Au      20.10724526      31.08568333      30.11395311 
Au      31.74718507      27.67377236      27.10789145 
Ag      23.93474671      28.64041262      32.53156927 
Ag      29.84259089      15.80232626      23.02944024 
Au      22.61309171      17.01666989      34.55581017 
Au      13.31477303      19.57889061      28.51429698 
Ag      24.01355951      27.75839067      15.55216684 
Au      15.19714818      17.46722602      30.91863474 
Ag      25.64449601      25.50628964      14.62202272 
Ag      28.60169295      30.57139206      31.99728252 
Ag      22.75084660      30.07644540      16.76133298 
Au      22.02108565      21.76716159      34.90478184 
Au      31.40816366      28.27515341      31.20820276 
Ag      19.51652310      15.06800180      29.83210550 
Ag      22.79429176      25.54947732      13.74394697 
Ag      16.15867349      15.18642978      28.12364718 
Ag      24.98225815      32.76414556      29.41409491 
Ag      26.68383900      14.60237567      30.94824796 
Au      28.37494444      13.32954479      23.95314343 
Ag      16.21302875      17.23049566      19.12979356 
Au      15.97292877      17.88622341      22.18265702 
Ag      20.87817180      15.42845917      17.95369914 
Au      11.80492067      24.68325253      22.94656840 
Au      14.54227054      30.16443158      26.99808356 
Ag      24.32866087      21.39342588      26.13681628 
Ag      14.91402934      19.95376985      20.31214802 
Au      25.37736046      31.02372120      17.97259964 
Au      28.78050701      20.34876202      14.44870935 
Ag      30.16906153      26.90312291      22.40124743 
Au      31.07557263      24.83791302      24.16817641 
Au      31.81498958      24.71520743      21.40229653 
Au      20.52946124      23.83235782      23.82683288 
Ag      25.20384549      14.94684967      16.15025025 
Au      30.68253551      29.76299030      25.15540504 
Au      25.76678357      23.40900162      27.80461554 
Ag      26.98868438      27.51236254      16.28052287 
Ag      20.85261685      31.33311293      33.05684095 
Ag      17.67572723      24.06299533      23.31238357 
Ag      22.96315297      19.33852546      24.49482535 
Au      27.77215153      20.91753666      23.83887633 
Ag      19.58809920      25.89724757      21.94928376 
Ag      25.01632781      30.72315994      14.87867861 
Au      25.18055565      19.31047920      27.93880497 
Ag      19.08939407      26.12993890      24.87081050 
Au      20.59152397      28.12307860      26.43390223 
Au      21.45793073      26.00042229      28.24476521 
Ag      29.16664239      22.96958312      25.47354463 
Au      19.20432906      21.77055546      22.16233962 
Ag      24.48163104      16.99033198      23.48093368 
Ag      22.91810498      28.10974334      29.89659313 
Ag      20.67520668      19.44092799      21.15865606 
Au      20.40363808      22.21585915      31.30505173 
Ag      24.84030236      29.90216074      28.63624150 
Ag      18.10613441      28.27779585      22.99680159 
Au      28.17581031      18.97529349      28.52140858 
Au      18.96078697      20.18693889      29.72890340 
Au      29.76384571      22.70353440      22.56975546 
Ag      19.59095844      21.52994554      19.27554059 
Au      18.19861181      17.82362399      25.26181976 
Au      15.70808269      22.19786537      24.60734998 
Ag      16.66943783      26.18836989      21.47253111 
Au      26.49892546      24.88091745      17.28505676 
Au      28.13374432      29.34768891      26.29198235 
Au      17.24528761      19.92141989      23.54172744 
Au      18.79018468      17.55245826      22.46707454 
Au      30.68795269      20.63217235      24.41373136 
Au      22.10726015      27.44778633      17.71969440 
Ag      21.09844874      19.24911606      18.32644807 
Au      22.18879735      17.17280146      19.98475327 
Au      21.92681218      15.49578316      27.63738517 
Ag      19.01722674      24.46273878      32.48900163 
Ag      26.53927880      25.60658319      32.34285714 
Au      14.81310176      24.32577295      22.87224709 
Ag      29.62744038      20.83298928      30.20020795 
Ag      23.99146225      31.91680908      26.72492457 
Ag      22.53068155      15.13825783      24.83966719 
Au      25.00719558      16.92214505      20.55427226 
Ag      28.54671977      27.65787196      31.18722776 
Au      19.26520684      17.47347592      19.58191168 
Au      27.75956725      31.14412654      21.50509641 
Ag      15.24108170      24.07465992      19.98748686 
Au      21.30779517      17.11173803      31.41840086 
Ag      21.38285293      32.04807637      23.22190694 
Ag      14.22431050      24.56095676      25.62154632 
Au      22.33414692      22.96097265      14.93366157 
Au      30.66715084      26.73792531      19.50648207 
Ag      18.23913110      19.43405744      17.77580194 
Au      22.79531036      18.28702690      16.23554494 
Au      15.48709595      17.57724482      26.21983181 
Ag      30.31858650      29.97153978      28.06124277 
Ag      29.81127907      18.33726767      19.84771178 
Au      13.66410897      21.72162844      22.54248342 
Ag      30.38139157      17.73127730      30.81323815 
Au      26.76662857      15.93934090      18.56952392 
Ag      21.08047923      32.38599761      26.31718319 
Au      19.32253696      27.85732278      17.18560709 
Ag      25.85354268      17.95563246      16.64526587 
Ag      14.53376941      19.50346336      24.29724976 
Au      18.92594040      33.44413324      20.69788736 
Au      23.89918291      22.24061094      12.42416605 
Au      34.67278361      22.52511311      27.41510130 
Au      28.86255611      32.80842000      29.37626081 
Au      19.40898927      31.12425044      16.49442348 
Au      23.72664600      14.97962509      18.94015789 
Ag      14.21532619      27.21309361      19.50194173 
Ag      21.09962311      26.76971520      34.19728154 
Ag      19.72192739      28.67032638      32.15391214 
S      20.78880485      15.93116138      33.53539341 
S      28.52206174      32.47613994      19.57041063 
S      23.96092644      22.87491784      35.70146846 
S      24.36416845      18.15607806      35.63885904 
S      12.40843577      18.19691586      24.09436935 
S      32.35453884      17.49419967      29.41989312 
S      31.42592609      14.69083445      21.46822599 
S      29.99733873      19.22852499      16.11440708 
S      28.25083976      22.01558909      33.31619791 
S      23.22759344      27.82567681      34.74408010 
S      13.40646674      30.11172676      24.92828130 
S      16.28439656      18.18144641      16.89958554 
S      32.66494541      23.13205420      19.71925321 
S      26.69958117      30.73133686      33.54592808 
S      22.95221671      32.43901823      32.65383137 
S      17.31161649      31.24416917      17.54897318 
S      11.32926639      22.37841837      22.80486498 
S      25.00835581      13.13543114      26.93526646 
S      33.75285770      29.08318624      27.42524608 
S      28.53686780      26.51601314      33.45744848 
S      24.00579732      24.51351568      11.81129348 
S      27.63296761      25.94619209      13.16211974 
S      19.14234940      33.30268924      30.39587734 
S      28.84607236      17.59137139      32.70995133 
S      21.25753380      34.13552030      24.52180589 
S      30.77750978      32.41515652      28.05422670 
S      28.90079714      29.07680971      16.19637434 
S      33.50191396      17.12150050      23.93803021 
S      34.85759484      21.69404269      23.32565473 
S      19.23030239      13.61224974      25.80246072 
S      20.86765778      33.61176312      19.36224960 
S      12.58038570      19.51453467      19.55694196 
S      18.78952896      30.29815640      33.73704707 
S      31.75556111      31.07985781      23.43934239 
S      35.33614969      27.35785328      23.33066482 
S      31.00488010      30.56635824      31.58196132 
S      23.08556837      13.20271388      23.35318183 
S      32.19460426      19.03429298      19.66462396 
S      28.56492543      14.58102829      17.67652706 
S      15.41544510      30.41397716      29.17539107 
S      31.71912269      21.92791223      31.04809049 
S      20.62904995      26.74088566      14.01672976 
S      17.16850127      26.93973963      16.42459821 
S      27.34500407      12.79322844      21.90190605 
S      16.85259519      33.58203540      26.21897182 
S      15.33416564      21.67222670      31.26893625 
S      21.14332288      16.58546544      15.79804234 
S      24.68877051      28.85521032      13.41321400 
S      20.10127433      22.17066208      14.23067998 
S      21.34365622      31.35468824      15.16686851 
S      23.05333844      33.75167393      28.10365544 
S      13.43900636      17.37247664      29.35111181 
S      24.43597307      33.60783411      22.11455386 
S      27.69888670      21.27588156      12.56090988 
S      16.42905094      23.07864326      16.72893276 
S      25.96137899      16.58553122      14.56068400 
S      17.17375446      14.29843809      30.13618928 
S      28.78232899      13.99385856      29.85427780 
S      27.01066622      33.59109522      30.61819456 
S      32.63413095      28.20362582      19.70468337 
S      25.02036313      14.61637902      32.69409847 
S      14.42628158      29.66315703      19.44549648 
S      13.32767229      25.96162582      27.45955724 
S      34.66523921      20.18948187      27.74291631 
S      30.29610308      23.50664838      15.99317129 
S      18.89943838      25.78625752      34.58154183 
S      35.20670114      24.81206378      27.15041022 
S      19.92771576      20.67226988      34.64693739 
S      32.15234792      26.05747686      31.00700020 
S      23.74362936      19.90438807      12.74196668 
S      17.00704475      33.45281307      22.05601055 
S      15.77285487      26.26026675      30.59805295 
S      11.80844029      27.04041125      22.97448500 
S      24.36245851      13.14160437      17.52789402 
S      13.12176445      25.05806514      19.18544726 
S      21.71979829      13.91640869      29.48997990 
S      16.75900287      17.49379376      32.68298608 
S      15.62492510      15.79288690      21.02804387 
S      14.83170629      15.27666010      26.05765984 
S      25.36603515      32.71065212      16.19885729 
S      29.55072945      13.58922158      25.97951786 
S      20.19127491      13.64174405      19.51545457 
S      27.01757060      33.52531447      25.71275497 
S      12.86119502      21.74158661      27.70724707 
C      21.29050297      14.17721194      33.35548266 
C      30.30397083      32.83130559      19.84635835 
C      23.33616074      24.24175555      36.75814360 
C      23.62255185      18.92907730      37.13139649 
C      11.06410418      19.17838279      24.86705304 
C      32.66582378      15.68664320      29.30187905 
C      31.44117723      12.86594788      21.69015131 
C      31.68629731      19.93448826      15.97416803 
C      28.07165202      23.06243511      34.80522173 
C      22.91223982      29.29923888      35.79528219 
C      13.30862172      31.86833863      24.40080567 
C      16.98882597      16.85590662      15.83445191 
C      33.15759368      24.09556827      18.24524784 
C      26.49529272      32.47134966      34.09070397 
C      22.48072763      34.10667948      32.05122960 
C      16.88500636      33.02527985      17.41382339 
C      10.59408127      22.27323294      21.12475606 
C      26.46247165      12.13771256      27.43947528 
C      34.72880275      28.28394276      28.75549253 
C      27.96603685      27.62966558      34.79972521 
C      22.77190510      24.71313490      10.46071885 
C      27.04352649      26.57220292      11.54154986 
C      17.62032614      33.06941542      31.40148087 
C      29.60978127      18.53831700      34.08480824 
C      19.62693829      34.92537468      24.24974014 
C      32.25569806      32.80510047      29.06592775 
C      28.76920948      30.04806531      14.64339563 
C      34.44324365      16.62421204      25.43456859 
C      35.53111279      21.67591359      21.61723886 
C      17.60215892      12.87012306      25.38558604 
C      21.73550486      35.09933620      19.99643766 
C      12.51257634      17.98215797      18.55041581 
C      19.00351854      29.66736687      35.45033661 
C      33.44946959      31.51391163      23.99062435 
C      35.67596643      28.81126102      22.26235830 
C      31.75206144      30.82440309      33.24481112 
C      21.61073226      12.17721841      22.99229899 
C      33.27868385      17.65245909      20.19193892 
C      28.08231981      12.82102751      17.89813370 
C      14.16654070      29.66478923      30.29242019 
C      33.15666817      20.79455173      31.13688047 
C      19.43465818      25.88650519      12.91305376 
C      15.89782518      28.22868148      16.16828190 
C      26.29751238      11.32147933      22.23153551 
C      15.22286639      33.90475370      27.00345483 
C      15.27721291      20.82730321      32.89490164 
C      21.84065622      15.42181994      14.56591350 
C      23.16225715      29.27411450      12.47742796 
C      20.29454285      20.79194626      13.04059311 
C      21.74044367      33.13786447      15.37252477 
C      23.65680196      35.26920735      27.25990594 
C      11.93211036      17.24078168      30.39946239 
C      25.99888252      34.55934234      22.23951698 
C      28.99529204      21.14819697      11.26147668 
C      16.46482819      21.90996858      15.31910452 
C      27.74205887      16.22230780      14.28677020 
C      17.31376931      12.49096624      29.82313723 
C      29.92171914      13.98148179      31.29759131 
C      26.99720487      35.39700672      30.25788964 
C      32.50686633      29.44558581      18.35480237 
C      26.03714515      14.95491106      34.18966910 
C      12.97450781      30.28746143      20.38380254 
C      12.04317882      27.07269536      26.76479672 
C      36.17146932      19.67956257      26.82072010 
C      30.73747564      24.69822460      14.67196880 
C      19.05243652      24.64605612      36.01670889 
C      36.53138229      24.74848675      25.87983422 
C      19.91190921      19.33215339      35.89696595 
C      32.14675582      25.43005658      32.73228643 
C      24.93169592      19.09485307      11.60856560 
C      15.55507863      33.41383206      20.93308709 
C      15.31424125      25.47582604      32.18854590 
C      10.83131606      27.43016750      21.46926456 
C      22.83878618      12.44892757      16.77553694 
C      13.05038634      24.82072666      17.36378116 
C      21.38615110      12.29081755      28.71221922 
C      16.81210068      15.80681700      33.39488645 
C      13.83416603      15.39363955      21.00751743 
C      13.04912819      15.14393854      26.45762476 
C      27.08651077      33.29629095      15.94016687 
C      31.31431558      13.28330757      25.56941341 
C      18.43510900      13.25868527      19.13309325 
C      28.61503588      34.43195980      25.79494149 
C      12.23765771      22.64454270      29.17705328 
H      22.32551941      14.09089940      33.00555847 
H      21.18130789      13.69481937      34.33366721 
H      20.61188434      13.71378080      32.62903348 
H      30.73818672      33.18294201      18.90343947 
H      30.38003971      33.62035991      20.60361359 
H      30.84525644      31.94587821      20.19885025 
H      24.21383197      24.78208027      37.13291437 
H      22.70621829      24.93862984      36.19367781 
H      22.77750094      23.81708547      37.59907662 
H      23.31424948      18.14468693      37.83081392 
H      24.40434440      19.54759627      37.58839424 
H      22.77111732      19.56885673      36.87619796 
H      11.21308760      19.13427916      25.95343997 
H      11.08367461      20.22281196      24.53794718 
H      10.10279629      18.72356740      24.60257072 
H      33.44422792      15.52841512      28.54586607 
H      33.02596755      15.32270301      30.27091651 
H      31.76056709      15.14223974      29.01214935 
H      30.43329900      12.46909365      21.85494439 
H      31.88200849      12.40794767      20.79758323 
H      32.06940685      12.63676984      22.55899009 
H      31.64812188      21.02733049      15.90568883 
H      32.23041237      19.63590900      16.87973483 
H      32.16920245      19.51274379      15.08600835 
H      27.75136673      22.42021090      35.63359921 
H      29.04950607      23.50794836      35.02245848 
H      27.34129059      23.86517850      34.64557652 
H      22.23233120      30.00877226      35.30592578 
H      22.48652963      28.97558527      36.75195330 
H      23.87473631      29.79412820      35.97225163 
H      12.65780511      32.41830693      25.08952989 
H      14.30113394      32.33116272      24.36644237 
H      12.86504046      31.87721410      23.39759673 
H      17.14522940      17.27693641      14.83426568 
H      17.94788757      16.49314710      16.21948646 
H      16.27364829      16.02828744      15.77371797 
H      32.42794119      24.88642270      18.03109739 
H      34.14174230      24.53410958      18.44747896 
H      33.21236578      23.40920648      17.39205500 
H      26.85259843      33.16898363      33.32626491 
H      25.42974723      32.65159778      34.27516970 
H      27.06589625      32.60360011      35.01741733 
H      21.58247995      34.07251188      31.42437144 
H      22.29605867      34.73612600      32.92973164 
H      23.31695720      34.51496904      31.47061783 
H      15.88919864      33.15216481      17.85502100 
H      17.60827489      33.65313737      17.94635544 
H      16.85082249      33.30262134      16.35467232 
H      11.21123019      22.80361058      20.39141517 
H      10.52451155      21.21244933      20.85535310 
H       9.59416855      22.71984058      21.16807318 
H      27.33862708      12.75738768      27.64975095 
H      26.19437501      11.57598598      28.34193883 
H      26.70213507      11.43966667      26.62863116 
H      35.70589960      28.77866031      28.80049847 
H      34.18433182      28.43547474      29.69652572 
H      34.85714964      27.21193144      28.57119765 
H      27.96271157      27.05272739      35.73238261 
H      28.65904218      28.47351876      34.89213588 
H      26.96110832      28.01735433      34.60725191 
H      22.73654053      25.77807268      10.20108685 
H      23.09982638      24.13383835       9.59002422 
H      21.77824944      24.38111356      10.77596491 
H      26.18728235      25.98923398      11.18549670 
H      26.73836715      27.61508968      11.68916266 
H      27.87081678      26.51399563      10.82572869 
H      17.90852256      32.79009560      32.42190812 
H      17.08543806      34.02655447      31.41248782 
H      16.97621317      32.29263940      30.97514930 
H      30.45792482      17.96156533      34.47095472 
H      29.94404674      19.52583421      33.75086818 
H      28.85515562      18.66070571      34.87085248 
H      18.80799679      34.20117068      24.27406740 
H      19.46539593      35.66730123      25.04039710 
H      19.63697642      35.42339533      23.27270337 
H      32.19089016      32.33281010      30.05182408 
H      33.12535090      32.41001030      28.52664473 
H      32.34055522      33.89288740      29.16420716 
H      29.53233933      30.83461169      14.64322070 
H      28.95311349      29.36345508      13.80648379 
H      27.77323446      30.49543198      14.52128978 
H      34.17488799      15.58707698      25.66817578 
H      35.51354987      16.68090161      25.20508928 
H      34.20858772      17.26417304      26.29240912 
H      34.80969214      21.26320511      20.90454855 
H      35.76387720      22.70923532      21.33468037 
H      36.44822702      21.07561207      21.62030325 
H      17.13473468      12.48716616      26.30046129 
H      16.92978251      13.59527488      24.91749778 
H      17.78866509      12.03947787      24.69369512 
H      22.70238323      35.15274751      19.48194319 
H      21.12990115      35.97913364      19.75195561 
H      21.90707093      35.03294522      21.07600214 
H      12.65686830      18.28229465      17.50567793 
H      13.30627548      17.27801479      18.82405513 
H      11.53035567      17.51287314      18.67207142 
H      18.86746408      30.50239672      36.14672905 
H      18.23710520      28.90369855      35.62497733 
H      19.98891962      29.21549222      35.60184039 
H      34.00245573      30.62914075      24.33655725 
H      33.97581389      31.98369539      23.15124325 
H      33.36070195      32.23140305      24.81497236 
H      35.85114784      28.42980099      21.24953899 
H      34.82983373      29.50646511      22.23705412 
H      36.57264676      29.32219451      22.62974034 
H      31.35274648      30.11634755      33.97680222 
H      32.83868114      30.70552667      33.16738405 
H      31.51517402      31.84852629      33.55633692 
H      21.51621505      11.44664473      23.80456411 
H      20.70634716      12.79635053      22.94483395 
H      21.75733470      11.66566638      22.03486956 
H      33.37448030      16.94994179      19.35582216 
H      34.26559826      18.06085928      20.44148196 
H      32.88023145      17.11730401      21.05853195 
H      27.27303293      12.58691410      17.19672424 
H      28.96242479      12.20791596      17.67054279 
H      27.74947027      12.62547714      18.92316187 
H      13.24416823      30.25285431      30.23901741 
H      13.97209539      28.62044760      30.02621632 
H      14.57619375      29.70842426      31.30879892 
H      33.09200273      20.25633413      32.09063122 
H      33.16923356      20.07335784      30.31482162 
H      34.07415802      21.39330063      31.10965131 
H      19.58284236      24.80045327      12.92398269 
H      18.42212883      26.11384772      13.26856930 
H      19.55980998      26.27147934      11.89401366 
H      15.84474160      28.93582284      17.00020702 
H      16.15311958      28.77080152      15.24978071 
H      14.93225364      27.72246140      16.04636146 
H      26.93545804      10.47886404      22.51807837 
H      25.55755882      11.52947429      23.01170115 
H      25.77609592      11.09056491      21.29439593 
H      14.46676638      33.97970980      26.21366804 
H      14.94606178      33.10859589      27.70282258 
H      15.29053966      34.86229017      27.53284623 
H      15.05811094      21.57608851      33.66511735 
H      14.47784731      20.07674571      32.86763749 
H      16.22535118      20.33074651      33.12267792 
H      21.99019484      15.96510498      13.62582633 
H      22.80311529      15.00739281      14.89706691 
H      21.11842057      14.61157907      14.40986804 
H      22.42855689      29.78929190      13.10652527 
H      23.44746443      29.91575608      11.63610634 
H      22.72261080      28.34051936      12.10658642 
H      19.29134478      20.40788826      12.81903144 
H      20.76094758      21.17522178      12.12527249 
H      20.91463288      19.99125964      13.45467850 
H      22.74375686      33.30913863      14.96463830 
H      21.00347200      33.72014722      14.80845364 
H      21.71757308      33.43004688      16.42755096 
H      23.61457809      36.09941865      27.97411310 
H      24.68286573      35.13222909      26.89910518 
H      22.99399422      35.47103193      26.40855849 
H      11.96609375      16.27341774      30.91352539 
H      11.88324295      18.05123124      31.13188057 
H      11.05810474      17.27956840      29.73904972 
H      26.10541513      35.16894188      21.33490493 
H      25.93849006      35.20299993      23.12439409 
H      26.86425757      33.89188211      22.33537360 
H      29.92781179      21.62477999      11.57640264 
H      29.16948536      20.08431107      11.06297288 
H      28.61299194      21.63625671      10.35765043 
H      15.46022486      21.48411928      15.21233555 
H      16.73913468      22.46547069      14.41534178 
H      17.18811540      21.10354576      15.48979442 
H      28.21672975      15.82283482      15.18996112 
H      27.82012403      15.48880659      13.47598611 
H      28.24155574      17.15452892      13.99460897 
H      16.30747454      12.06828335      29.72265543 
H      17.88939335      12.28950521      28.91368265 
H      17.81714210      12.02742634      30.67986925 
H      30.95288573      13.91722788      30.93278408 
H      29.80471037      14.87825930      31.91595746 
H      29.69152398      13.09004567      31.89307773 
H      26.91377068      35.58556101      29.18318153 
H      26.13648193      35.83445998      30.77787939 
H      27.92163537      35.84081552      30.64419537 
H      32.77477537      28.94941736      17.41460025 
H      31.49147532      29.84879279      18.26536821 
H      33.21647025      30.25512163      18.56013620 
H      26.76290336      15.75545709      34.00866626 
H      25.36419942      15.25393990      35.00227548 
H      26.56443115      14.03425718      34.46384932 
H      12.90489978      29.81979129      21.37226808 
H      13.09277753      31.37119279      20.50334185 
H      12.06182059      30.08738345      19.81108451 
H      12.33248853      27.48374462      25.79350213 
H      11.11525582      26.50052861      26.65021828 
H      11.88394506      27.89895878      27.46779641 
H      36.13511977      20.00462148      25.77513285 
H      37.04700548      20.11329070      27.31613708 
H      36.23342028      18.58613749      26.86744425 
H      30.06600148      25.56191360      14.66498973 
H      31.76810502      25.03055920      14.84381067 
H      30.66657253      24.18501706      13.70515396 
H      19.82575683      23.88689016      35.85282676 
H      19.28962196      25.23187155      36.91183002 
H      18.08658679      24.14575298      36.15428355 
H      36.71658584      25.77447110      25.53885084 
H      37.43196230      24.33982400      26.35212853 
H      36.23483717      24.12285196      25.03166034 
H      19.99586233      19.77763778      36.89479602 
H      18.94827318      18.81686427      35.80258474 
H      20.72610410      18.61397074      35.72757782 
H      32.24809833      24.33887420      32.66873261 
H      33.00362655      25.85665498      33.26502887 
H      31.21219068      25.68793743      33.24400246 
H      25.88847340      19.62679648      11.59912781 
H      25.07617288      18.06978567      11.97209758 
H      24.48795667      19.08494718      10.60629527 
H      14.66487836      33.41933786      21.57409299 
H      15.55692323      34.31282317      20.30750019 
H      15.54704138      32.51414425      20.30689329 
H      15.41103767      26.22158846      32.98542770 
H      14.27311735      25.14208937      32.10237023 
H      15.95807816      24.61250789      32.39678669 
H      11.25452447      26.94787533      20.58085328 
H       9.80485524      27.08310184      21.63337981 
H      10.83366360      28.51888113      21.34571931 
H      22.28248499      11.92098124      17.55829083 
H      22.20116194      13.23039312      16.35068392 
H      23.14257532      11.74681483      15.99009349 
H      12.61462330      23.83287366      17.17245317 
H      12.40815921      25.59368469      16.92746079 
H      14.04898820      24.86041267      16.91549847 
H      22.31771793      11.93557604      28.25398987 
H      21.06938820      11.59716624      29.50056625 
H      20.60641564      12.37128591      27.94503353 
H      16.79057457      15.04579686      32.60677341 
H      17.74642729      15.72994394      33.96477527 
H      15.95030334      15.69353384      34.06266118 
H      13.21699649      16.29993957      20.96274512 
H      13.62381156      14.74706830      20.14774588 
H      13.60840402      14.85743392      21.93722890 
H      12.79399469      14.07757316      26.48359423 
H      12.82713463      15.60508783      27.42525561 
H      12.48294905      15.64720706      25.66447152 
H      27.79466081      32.46563343      15.85748609 
H      27.10500104      33.89335198      15.02084601 
H      27.36446938      33.91887581      16.79812939 
H      31.65634433      13.93203163      24.75518703 
H      31.89475997      13.48914451      26.47694891 
H      31.42925550      12.22981580      25.29009498 
H      18.40210935      12.71549448      18.18129381 
H      18.03785455      12.62218368      19.93225510 
H      17.82928475      14.16862099      19.06359539 
H      28.64773703      35.13411244      24.95340360 
H      28.66621289      34.98448014      26.74026571 
H      29.46741955      33.74789752      25.74078160 
H      12.23047364      23.71054455      28.91324878 
H      11.21957052      22.29735872      29.38617149 
H      12.88741191      22.47606100      30.04301936 
