699
Properties=species:S:1:pos:R:3 i=135 optimized=T E=-11078.7119581774 pbc="F F F" jobid=279_84-Ag-30_1-000002-PBE
Au      33.19335613      25.41106368      25.91493319 
Au      32.03459376      29.42480911      21.57479095 
Au      34.57316086      28.11674463      25.35590831 
Au      29.77954061      14.70508514      19.73245280 
Au      34.08614587      19.68759950      23.70989183 
Au      27.34173280      23.37999568      13.02558299 
Au      17.95952675      33.15030615      28.21087500 
Au      28.72782895      31.11488821      18.21223948 
Au      24.90802613      21.18433123      23.27509116 
Ag      26.27157739      23.23020644      24.91950511 
Ag      28.19991788      25.07826192      23.60384127 
Ag      23.78222348      21.58844817      29.07926359 
Au      23.31302305      27.86617497      26.97444009 
Au      26.89719165      23.06079789      21.97995138 
Ag      22.37370561      19.53403612      27.42244729 
Au      27.19287466      21.13787739      26.72768510 
Au      22.03163216      21.43129799      22.73188611 
Au      20.99110462      23.52109129      20.85719089 
Au      27.63118240      25.27458579      26.56591577 
Au      19.97233999      24.03856030      26.69690371 
Au      25.47769647      21.03976013      20.35346205 
Au      24.28015154      25.73019455      28.83336895 
Au      23.83904085      27.69633320      24.07568182 
Au      26.16943548      27.59437146      27.61539878 
Au      20.92500027      21.87711590      28.45823337 
Au      22.86683786      23.70018116      27.24589494 
Au      21.48463061      21.63808432      25.61599790 
Au      19.52416336      19.77492055      26.88792915 
Ag      25.83914104      19.07859824      25.10337793 
Au      25.25208636      23.57975844      30.72462466 
Au      22.99383149      25.32067953      19.56318407 
Au      20.96738041      27.91388732      23.55218731 
Au      26.63447390      27.36971641      24.72395742 
Au      22.58515597      21.32719589      19.83141271 
Ag      21.91677323      25.83437172      25.37081188 
Ag      27.19637824      25.50055997      29.48536757 
Ag      20.13104181      19.59729707      24.04270796 
Au      25.90647618      25.04600413      20.15801571 
Au      23.49786521      19.12888843      21.65094908 
Au      22.30793969      23.87010589      30.14231054 
Au      21.03780464      17.43548687      25.85039298 
Au      21.54556838      27.64968559      20.59871804 
Au      24.39859643      27.39185277      21.23946281 
Au      24.54348502      23.06816337      18.47229974 
Au      28.61379640      23.18882856      28.45701436 
Au      18.61196775      21.89949051      25.08609848 
Au      26.67539490      21.25684104      29.62401549 
Au      22.38507867      30.04703540      25.12629480 
Ag      27.23909601      27.13481239      21.77821635 
Ag      21.78674601      19.70952927      30.29600685 
Au      18.48211004      26.31503655      27.68559217 
Ag      23.12339493      21.69715461      31.97352256 
Au      21.54345179      23.35144286      17.92028455 
Au      17.05887798      24.22715203      26.16543810 
Au      27.44828463      22.76209513      18.95834492 
Au      23.87960892      17.19404996      26.35593737 
Au      23.25461787      17.45554905      29.26765804 
Ag      25.19761644      29.78313578      25.75157376 
Au      21.65089923      17.16782157      22.92854441 
Ag      28.75725450      18.81125809      25.68300616 
Ag      22.86788900      29.76298294      22.23840416 
Au      25.34009879      25.31309910      23.07425446 
Au      20.05262647      25.63525271      18.95887640 
Au      29.52507463      27.17287475      25.33557872 
Ag      19.33814469      24.22150381      29.55596287 
Ag      18.00673359      22.14015480      27.94002892 
Au      19.93463069      28.31331082      29.37091517 
Au      23.69967208      25.88246548      31.69359019 
Au      20.89942539      26.24742827      31.12733289 
Au      26.37173721      18.91721490      22.13732156 
Ag      24.63447682      19.47944280      30.89203299 
Au      20.28949959      17.55378829      28.75641586 
Ag      28.84145310      24.84605009      20.66325512 
Au      19.49772713      30.18009177      24.58991175 
Ag      25.75317387      29.54621420      22.81804107 
Au      24.95142509      27.06471969      18.28595295 
Au      28.39787359      20.76540674      20.84292530 
Au      29.10826967      27.38845374      28.26446205 
Au      30.06656628      20.88247604      27.27302513 
Au      18.09579612      23.82998794      20.28759692 
Ag      17.64046081      19.56531762      20.62013013 
Ag      25.70928568      27.75149085      30.49293920 
Au      28.14861049      23.39737578      31.26061802 
Au      21.88428995      30.18720048      28.08302325 
Ag      21.66314490      24.08205886      33.03419272 
Ag      18.67431894      27.96016023      20.05901229 
Ag      16.25992377      21.89010912      21.59131061 
Au      30.51857458      25.09721234      27.12931289 
Au      23.39228474      23.47362243      24.33771123 
Ag      20.03148276      29.99914080      21.66752448 
Ag      16.63953535      19.98370345      26.38574555 
Ag      26.71602402      16.99288803      26.90360314 
Ag      30.03150305      25.21912129      30.00427455 
Au      17.54724354      28.38659181      25.84955156 
Au      16.14485890      26.25532359      24.26427188 
Au      28.53622525      29.15196977      23.41785264 
Ag      27.81598714      26.89854116      18.93554513 
Au      24.08652716      19.03709275      18.70632375 
Ag      27.38889738      16.78673254      23.98828610 
Au      26.93641127      18.69726758      19.20441840 
Au      25.92944862      21.31526998      32.65847356 
Au      12.46443011      18.77824081      21.82999705 
Au      23.03906275      21.08220679      16.89020144 
Au      26.30144757      29.19856116      19.88820515 
Au      19.86188882      19.64261070      32.42200000 
Ag      26.12729925      17.15022244      29.85996237 
Au      29.21975791      18.70737714      22.75689890 
Au      27.60416801      29.69493753      29.22961859 
Au      15.22137056      22.35771270      27.36572789 
Au      26.06826642      20.77338544      17.24101584 
Au      24.48864049      23.82565792      33.46564039 
Au      23.55761519      25.09928826      16.58036557 
Ag      17.48287506      17.86314018      28.16837685 
Au      19.02187872      30.40427698      27.52535964 
Ag      23.49932176      29.48870756      19.31814783 
Au      22.42369773      25.57183736      22.46765231 
Au      16.15807668      20.13066407      29.28431982 
Au      27.49850414      19.18998880      31.39842818 
Ag      29.16931962      28.98941390      20.54265826 
Ag      16.44112067      24.46241251      28.97397966 
Au      31.97498129      22.80441538      26.04181477 
Ag      16.59507169      21.66609145      18.71109384 
Au      24.91351058      31.55729966      20.78279378 
Au      21.98530638      31.71355822      20.40148049 
Au      20.64719293      25.42847024      16.11284979 
Au      24.26122711      31.83989683      23.95404896 
Au      20.60181580      29.73353406      18.79164651 
Au      23.12633962      14.88116388      21.65105777 
Au      30.25416893      22.54081738      19.52321302 
Ag      25.10614043      22.81662119      15.49140241 
Au      18.70692632      23.67430297      17.27944897 
Ag      28.89449524      20.47737589      17.93754351 
Ag      17.51406896      22.39051183      30.86207918 
Au      17.10041306      28.58015003      28.72428250 
Au      27.87793934      16.62196274      21.05176833 
Au      15.55993742      26.74216557      27.04379200 
Au      18.88364198      15.58984197      27.11825070 
Ag      19.63693559      15.43597036      24.05469578 
Au      18.01915628      26.59178702      30.77426108 
Ag      20.23522382      15.33276113      21.22372116 
Ag      27.26848748      31.51073290      24.37487863 
Ag      24.81652882      15.17553948      28.32100377 
Ag      23.95303888      23.29164302      21.44280822 
Au      20.05636421      21.13417704      16.38344058 
Ag      27.93643106      22.61365222      15.96916757 
Au      31.33432170      20.45439455      21.66443191 
Au      26.72407322      31.78495670      27.48443873 
Au      25.58533906      14.91935272      25.23787678 
Au      28.67032456      16.20224201      28.81313527 
Au      26.02140382      14.82357772      22.33949785 
Ag      32.56536832      22.62315862      23.19568193 
Au      25.70993443      30.54157753      31.25058843 
Au      22.90031688      30.88995532      30.74692424 
Au      24.08962918      16.87721356      31.92239090 
Au      31.29029620      17.91515018      24.74857813 
Ag      17.05925967      26.04942028      18.53415425 
Au      31.59223900      22.94518593      28.80502557 
Au      29.38278672      16.06845568      25.96267826 
Au      15.53490786      29.18743448      23.89743466 
Au      16.12758939      28.98840291      20.98993922 
Ag      16.96954864      31.16034646      25.60780583 
Au      29.42926507      24.87182028      17.80040242 
Ag      30.76255138      18.05381699      27.66382043 
Au      18.45802989      17.54227924      30.92615149 
Ag      23.95988834      19.53913586      33.65294310 
Ag      18.07889794      30.79474260      19.75035393 
Ag      17.46703171      31.02868294      22.63739716 
Au      14.21356643      27.03760918      22.28326495 
Au      32.60779169      19.94446365      26.35400660 
Au      24.77830083      25.49773614      25.97341915 
Ag      32.87845304      26.82213509      23.13044591 
Au      24.76184637      19.94745965      14.88895733 
Au      20.04054912      31.00600934      30.17829143 
Ag      31.80732991      27.68027237      27.09281371 
Au      23.76096031      28.63295998      32.51090331 
Au      29.95919843      15.96926302      23.01797596 
Au      22.50295578      16.97774576      34.58263030 
Ag      13.93626180      19.46246234      27.51936151 
Au      24.22079756      27.92043927      15.69403103 
Ag      15.39032239      17.45335398      30.39749708 
Au      25.40807888      25.54924973      14.64019286 
Au      28.87694357      30.67390247      32.36803040 
Au      22.56868662      30.08205342      16.68014844 
Au      22.03537207      21.66744017      34.91307634 
Au      31.47082552      28.33847398      31.16348043 
Au      19.43254241      13.93984322      29.54523913 
Au      22.41479829      25.19511008      12.90009925 
Au      16.09866662      14.81441034      28.21486181 
Au      25.60019907      33.73331032      29.41898092 
Au      26.72126368      14.54421683      31.18864657 
Ag      28.42854351      13.65688166      24.17505747 
Au      16.19886489      17.05636409      19.40521572 
Ag      16.13151500      17.22645918      23.23880303 
Au      20.68720991      15.35634221      17.70536318 
Au      11.79153546      24.63302942      22.86003654 
Au      14.50628896      30.19006999      26.99168069 
Ag      24.33812584      21.34901779      26.16172316 
Au      14.90299611      19.91130729      20.11081175 
Ag      25.52926955      31.15896477      18.02770063 
Au      28.76376471      20.25426681      14.42771487 
Au      30.12791569      26.98387533      22.43194001 
Au      31.05925890      24.89779326      24.19811430 
Au      31.72154258      24.82436589      21.39525192 
Au      20.49989367      23.77790084      23.79427278 
Ag      25.17026904      14.83878053      16.14416806 
Ag      30.74943428      29.72135234      25.17380630 
Ag      25.73598500      23.40443451      27.85810607 
Au      26.79060429      28.66016200      16.98523630 
Au      20.78763906      31.35892896      33.18632934 
Au      17.65036226      23.96831477      23.23782198 
Ag      22.96112990      19.28885937      24.51525002 
Au      27.74545124      20.93571066      23.84031720 
Au      19.57454032      25.88545882      21.90089278 
Au      24.98604801      31.07662316      15.00552937 
Au      25.20332809      19.26506139      27.98207738 
Ag      19.02717529      26.07932865      24.79658849 
Ag      20.48638259      28.12440568      26.45590575 
Ag      21.39395669      26.01222171      28.25761119 
Au      29.09649995      23.02468329      25.48361486 
Au      19.13441482      21.66337325      22.14513305 
Au      24.54239125      17.00014536      23.50144292 
Au      22.87856878      28.11856122      29.89130319 
Au      20.67046876      19.42717815      21.13215729 
Ag      20.34799504      22.15624945      31.27104667 
Au      24.76621577      30.02717309      28.66841952 
Au      18.03902185      28.25214620      22.93010704 
Au      28.13113536      18.93324733      28.55028092 
Au      18.98284862      20.08578673      29.73196674 
Au      29.75657448      22.73488348      22.58681978 
Au      19.52353649      21.52665047      19.22398857 
Au      18.20170976      17.69494092      25.25291862 
Au      15.74379634      22.12076436      24.46327988 
Au      16.69574362      26.10829659      21.38070739 
Ag      26.52050567      24.85610595      17.21675017 
Ag      28.01847876      29.46304541      26.29581923 
Au      17.23657977      19.82689682      23.48394260 
Au      18.82937559      17.58015445      22.39379951 
Ag      30.67851817      20.71974636      24.41659154 
Au      22.11934836      27.44921495      17.68494603 
Au      21.12678031      19.29788521      18.29169094 
Ag      22.16561452      17.08801832      19.86202914 
Au      21.92478472      15.40024495      27.64681697 
Ag      18.89175852      24.36244187      32.37856547 
Ag      26.46834862      25.63972255      32.38162157 
Ag      14.73823645      24.20923096      22.68725986 
Au      29.61907624      20.74055987      30.14593438 
Ag      23.70624070      32.05952268      26.80656298 
Ag      22.52333449      15.10949300      24.80452005 
Au      24.93869163      16.86521340      20.52068590 
Ag      28.56460032      27.80318183      31.12886761 
Au      19.29617929      17.41283498      19.53914071 
Au      27.77136475      31.18688375      21.59400643 
Au      15.32753845      24.04650449      19.83987551 
Au      21.27190740      17.08466140      31.39552820 
Ag      21.20257200      32.12014685      23.19193446 
Ag      14.15495094      24.36245218      25.48413680 
Au      22.32375562      23.09020034      14.94015786 
Au      30.60281261      26.80259426      19.44280743 
Au      18.27712621      19.41251037      17.73127518 
Au      22.82056013      18.20497369      16.29742044 
Au      15.46228764      17.38780573      26.10111304 
Au      30.25225895      29.89431922      28.05551559 
Au      29.73961607      18.31293589      19.83670792 
Au      13.61834473      21.53535573      22.65104858 
Ag      30.31075046      17.70508842      30.82581186 
Au      26.67853915      15.85749558      18.53803149 
Au      20.69554821      32.24046093      26.28166754 
Ag      19.25387060      27.88192578      17.16639105 
Au      25.80252949      17.90685939      16.65563407 
Au      14.49833955      19.49890571      24.46211387 
Au      19.04121197      33.42623302      20.90948087 
Ag      24.08640204      21.92642264      12.76198812 
Au      34.60915550      22.60749491      27.49849417 
Au      29.18393095      32.83596724      29.15992124 
Au      19.21738331      31.36368350      16.63942407 
Au      23.70122893      14.86407099      18.91254149 
Au      13.79478507      27.08822290      19.30401488 
Ag      21.77204964      26.96093769      33.96151489 
Au      19.59787508      28.40981291      32.27893519 
S      20.71301465      15.90212867      33.49125333 
S      28.58887068      32.77206925      19.88599613 
S      24.02677646      22.75305558      35.62676750 
S      24.24581217      18.10326719      35.69287715 
S      12.40667685      18.15945761      24.09362683 
S      32.32027896      17.40973136      29.49976734 
S      31.37236512      14.69531386      21.46982787 
S      30.05338800      19.24511094      16.09915000 
S      28.18718976      22.07675530      33.33984634 
S      23.72867774      28.22917694      34.89742256 
S      13.49254169      30.14160551      24.86137960 
S      16.33705080      18.02159345      17.23258446 
S      32.61762225      23.19399605      19.79420964 
S      26.77636894      30.83114996      33.41977639 
S      22.74487988      32.51853653      32.59363350 
S      17.09646232      31.67599833      17.62245923 
S      11.31013691      22.34547194      22.63651356 
S      25.12428318      13.16211705      26.86294928 
S      33.85696835      29.10843949      27.36637758 
S      28.52487170      26.58798737      33.32816859 
S      23.98021340      24.05365363      11.54982849 
S      27.33725648      25.73463516      13.21541445 
S      18.89849688      33.14393178      30.37485601 
S      28.74364206      17.55236612      32.70380233 
S      21.25946268      34.07206722      24.80393098 
S      30.95039075      32.20283792      27.72397278 
S      28.95989820      29.60073668      16.40569563 
S      33.53292866      17.39637625      23.81971167 
S      34.91890729      21.88752952      23.52778070 
S      19.16110233      13.59444858      25.63352189 
S      20.85547501      33.67696289      19.41839644 
S      12.57064610      19.36233592      19.54870111 
S      18.88283232      30.12559433      33.81485368 
S      31.76061025      31.01234524      23.31097877 
S      35.32986947      27.22572614      23.30622392 
S      31.09433690      30.63890791      31.56454904 
S      22.94954919      13.12122849      23.33116437 
S      32.03295200      19.12264416      19.70389724 
S      28.42354012      14.30731299      17.84752027 
S      15.36178415      30.25076319      29.18974638 
S      31.57318493      21.92100162      31.02006020 
S      20.69917583      26.47481287      13.90456860 
S      17.11897336      27.04188612      16.25557298 
S      27.34060733      12.78096047      22.16526730 
S      16.79300169      33.57122005      26.20765299 
S      15.14620809      21.56923873      31.06085524 
S      21.07934105      16.62628707      15.72240389 
S      24.75923666      29.16468614      13.63646169 
S      20.16992800      22.09925965      14.15753625 
S      21.13582707      31.46391114      15.27164519 
S      23.56754888      34.07606571      28.29128628 
S      13.35021799      17.61150253      29.08983405 
S      24.38188775      33.53292243      22.16812118 
S      27.57931391      21.07987227      12.55598371 
S      16.44357813      23.07571438      16.62498332 
S      26.09680937      16.50531469      14.66893729 
S      17.17536415      14.15494722      30.21291657 
S      28.58255542      13.99238316      29.85872764 
S      27.61700879      33.76022290      30.66090499 
S      32.63112440      28.17751215      19.64890556 
S      25.03458671      14.79925088      32.80230257 
S      14.35473894      29.37879205      19.33047965 
S      13.32405481      25.85770328      27.34942951 
S      34.54965056      20.27287334      27.81605322 
S      30.27048887      23.60735049      15.90488023 
S      19.87858702      25.39806405      34.50801963 
S      35.16331271      24.88723284      27.25424838 
S      19.91021904      20.64334138      34.64633599 
S      32.15986492      26.10638336      30.96441757 
S      23.75796686      19.46335421      12.73617517 
S      17.15200752      33.47361297      22.31125950 
S      15.64719689      26.04825684      30.76828617 
S      11.87960375      26.98285939      23.00713028 
S      24.22126374      13.02869790      17.42964388 
S      13.11504230      24.83227152      19.11817783 
S      21.69553234      13.44922236      29.11556113 
S      16.64969340      17.46395902      32.51617058 
S      15.78772430      15.70463586      21.31115027 
S      14.85228391      15.02294266      26.22301973 
S      25.22884930      32.99344314      16.35971324 
S      29.87348765      13.66878162      26.15851192 
S      20.07761780      13.72176427      19.32035904 
S      26.98503045      33.54439670      25.76379647 
S      12.86875968      21.72899228      27.17156193 
C      21.23809507      14.16165475      33.25023934 
C      30.32575367      33.19536718      20.30222403 
C      23.48217448      24.11102147      36.73654934 
C      23.49775083      18.93178861      37.14965259 
C      11.01863292      19.10965130      24.82533082 
C      32.59788889      15.60206317      29.32297560 
C      31.43596381      12.91270658      21.90658193 
C      31.70151272      20.03699521      15.94210055 
C      27.99309003      23.14744762      34.81003323 
C      23.20507829      29.79082148      35.70158397 
C      13.40346535      31.88313973      24.29081085 
C      16.97218511      16.66979097      16.16330342 
C      33.19023029      24.16276546      18.34957083 
C      26.56811170      32.57836022      33.93101639 
C      22.20987598      34.13931283      31.92763979 
C      16.95926948      33.50868318      17.62698077 
C      10.67197145      22.24866053      20.91922162 
C      26.63907971      12.21430394      27.25844972 
C      34.86821662      28.36548091      28.70511278 
C      28.05516872      27.69607266      34.71459843 
C      23.02020156      23.68000044      10.02520355 
C      26.78653637      26.40889191      11.60281037 
C      17.44669560      32.84385942      31.45663725 
C      29.49455282      18.50262242      34.08473437 
C      19.78156318      35.14487448      24.64922772 
C      32.50282841      32.45919740      28.66292069 
C      28.80009938      30.58610747      14.86594858 
C      34.48540946      16.71422687      25.23211439 
C      35.71155778      21.96172966      21.87207257 
C      17.54088139      12.87878653      25.16404115 
C      21.74462505      35.17364970      19.99860648 
C      12.55378668      17.79852146      18.59133122 
C      19.19968177      29.48878334      35.50746707 
C      33.46202770      31.49003780      23.80743114 
C      35.78273946      28.66180621      22.25512104 
C      32.10457851      30.93688603      33.07442373 
C      21.42892085      12.18363056      22.92622482 
C      33.13979390      17.75342351      20.19879003 
C      27.80412050      12.61321411      18.19215219 
C      14.08604634      29.39129293      30.19016433 
C      32.98237677      20.75786313      31.13267102 
C      19.17519188      25.82117597      13.11830127 
C      15.94530002      28.44019966      16.08370673 
C      26.25907953      11.41927244      22.75496190 
C      15.11289966      34.00113645      26.81471571 
C      15.04399671      20.66387629      32.65348078 
C      21.80393506      15.46179522      14.50629629 
C      23.20564611      29.39475004      12.69062310 
C      20.43580457      20.68668828      13.02409050 
C      21.64767353      33.21435473      15.47003659 
C      23.95880582      35.47437314      27.16940371 
C      12.16352391      18.41572264      30.24223056 
C      25.92291769      34.51060574      22.30264137 
C      28.84605738      21.05353906      11.22098902 
C      16.53011927      21.92379393      15.20246093 
C      27.88763649      16.13024537      14.53584098 
C      16.63503222      12.40688235      30.41159748 
C      29.90125273      13.82756688      31.12623520 
C      28.03995894      35.55045302      30.69177041 
C      32.60027620      29.38756990      18.26778424 
C      26.01702580      15.19443609      34.30035085 
C      13.01130676      30.21780824      20.25657265 
C      12.13234460      27.11406612      26.75257665 
C      36.08158143      19.72258344      26.96769606 
C      30.59368647      24.78832307      14.54149139 
C      19.79922582      24.62626953      36.17757063 
C      36.56046044      24.81630861      26.06482731 
C      19.83099983      19.30884120      35.90025588 
C      32.17230401      25.49911991      32.69680445 
C      25.01364691      18.64580870      11.68425314 
C      15.71832679      33.66631132      21.17878030 
C      15.31875183      25.19719285      32.35585773 
C      10.76582552      27.49361668      21.63893113 
C      22.68556334      12.42988804      16.62703141 
C      13.00998064      24.50551287      17.31542244 
C      21.63870106      11.98955655      28.00808258 
C      16.65744805      15.83364691      33.34848582 
C      14.00455243      15.27843439      21.22156584 
C      13.07315079      14.92879515      26.65641026 
C      26.87552649      33.72139213      15.99904197 
C      31.59983937      13.47985666      25.56515334 
C      18.29336684      13.40325632      19.02046862 
C      28.59866215      34.40305829      25.90687860 
C      12.10461066      22.27851634      28.74540231 
H      22.28286460      14.09783219      32.92860018 
H      21.10599862      13.63224678      34.20098208 
H      20.58646976      13.72666775      32.48111669 
H      30.78526323      33.67485907      19.43067931 
H      30.29661288      33.90038195      21.14160735 
H      30.89628544      32.30854775      20.59834544 
H      24.38379631      24.65040084      37.05084558 
H      22.80964511      24.80390789      36.21905885 
H      22.98563469      23.67681888      37.61145274 
H      23.13618791      18.17476720      37.85376243 
H      24.29182846      19.52516427      37.61887047 
H      22.68131332      19.60247872      36.85839413 
H      11.11930708      19.04817509      25.91587943 
H      11.04070176      20.15847382      24.51229631 
H      10.08069963      18.64045341      24.50702356 
H      33.45374994      15.46452827      28.65090878 
H      32.83679798      15.17065854      30.30144983 
H      31.72189471      15.10125556      28.89703618 
H      30.44289692      12.52821256      22.16494756 
H      31.83564613      12.36805763      21.04364618 
H      32.11627767      12.79959851      22.75791205 
H      31.60979639      21.12578590      15.85743014 
H      32.26153004      19.78137888      16.85068823 
H      32.20785038      19.62762104      15.06115107 
H      27.84505849      22.49969152      35.68200899 
H      28.90920538      23.73883209      34.92364606 
H      27.13697414      23.82440719      34.69919847 
H      22.37465446      30.26901035      35.16393095 
H      22.89935910      29.56161847      36.72970166 
H      24.06128341      30.47572648      35.71753656 
H      12.70241286      32.42757511      24.93351052 
H      14.38902556      32.36094930      24.31498624 
H      13.02462240      31.86826396      23.26181611 
H      17.18079179      17.09937335      15.17637761 
H      17.89138247      16.23456710      16.57181994 
H      16.19354682      15.90329869      16.07811538 
H      32.44845440      24.92100136      18.06955727 
H      34.13846715      24.64308375      18.61715403 
H      33.33725836      23.46827559      17.51411056 
H      26.92786404      33.26130753      33.15467149 
H      25.49703097      32.74082323      34.10386915 
H      27.12869557      32.72744203      34.86117965 
H      21.31890819      34.04080298      31.29893005 
H      21.99790503      34.79699186      32.77867646 
H      23.04067536      34.53920808      31.33333460 
H      15.99034408      33.76241791      18.07336433 
H      17.76393641      33.96995150      18.21060795 
H      16.98679936      33.87161629      16.59382941 
H      11.34644260      22.75412954      20.21999133 
H      10.58645419      21.18745670      20.65656835 
H       9.68446095      22.72355755      20.89763726 
H      27.48403806      12.86594777      27.49581977 
H      26.41698863      11.58529937      28.12912135 
H      26.89472516      11.58097418      26.40035285 
H      35.85503135      28.84169600      28.70339952 
H      34.35287250      28.56812339      29.65269972 
H      34.97353291      27.28301996      28.57354419 
H      28.12611618      27.11551873      35.64226355 
H      28.75410933      28.54007220      34.75226378 
H      27.03556210      28.07861385      34.60175629 
H      22.80405594      24.61837902       9.50209777 
H      23.64381855      23.03984597       9.38996320 
H      22.08423750      23.16348043      10.25722809 
H      25.94228215      25.83657867      11.20379789 
H      26.48824493      27.45042612      11.77678100 
H      27.63756039      26.36915796      10.91313480 
H      17.81941952      32.62570796      32.46460091 
H      16.84297716      33.75864371      31.46905992 
H      16.84679567      32.00581794      31.08697152 
H      30.34801446      17.93363292      34.47093835 
H      29.81944433      19.49487710      33.75527775 
H      28.73744775      18.61552542      34.86981778 
H      18.87862412      34.57598241      24.41003995 
H      19.63223552      35.68078692      25.59340152 
H      19.98412059      35.86104971      23.84323987 
H      32.38772492      32.12295976      29.69851694 
H      33.28706106      31.87591910      28.16464728 
H      32.74287933      33.52824518      28.63218890 
H      29.61872112      31.31280598      14.81825782 
H      28.88165636      29.88086679      14.02987241 
H      27.82858071      31.09345673      14.81408123 
H      34.20215991      15.65959593      25.33436356 
H      35.55545464      16.78729022      25.00757606 
H      34.25218246      17.24858894      26.15933289 
H      35.00308655      21.70025640      21.07927584 
H      36.04884186      22.99536539      21.72670055 
H      36.57359474      21.28629066      21.85296117 
H      17.04497010      12.49215348      26.06223512 
H      16.89104616      13.61842787      24.68699091 
H      17.73656972      12.05595911      24.46539923 
H      22.64619858      35.27037882      19.38141492 
H      21.09767512      36.04575433      19.85301103 
H      22.03614535      35.08117797      21.04998368 
H      12.73823597      18.06055047      17.54271577 
H      13.33959517      17.11392034      18.93057529 
H      11.56753995      17.33250442      18.69392199 
H      19.09142028      30.32171242      36.21165622 
H      18.44589619      28.72055053      35.71463960 
H      20.19828032      29.04800710      35.59267052 
H      34.03009404      30.62697237      24.17986809 
H      33.97560647      31.94439570      22.95289330 
H      33.36447276      32.23012639      24.61120979 
H      36.03402759      28.26481323      21.26417954 
H      34.94864708      29.36495912      22.15285588 
H      36.65518342      29.16535786      22.68523583 
H      31.85432690      30.22653468      33.86733035 
H      33.16078524      30.83311883      32.80055105 
H      31.90785514      31.96021324      33.41381834 
H      21.35033612      11.36398078      23.65102182 
H      20.53594140      12.81623997      23.00328055 
H      21.51479959      11.78081677      21.91113879 
H      33.21241085      17.05503547      19.35654603 
H      34.12586349      18.17983658      20.42014003 
H      32.76751817      17.22409675      21.08015766 
H      27.00915047      12.38973791      17.47103143 
H      28.64142342      11.91907644      18.05690872 
H      27.41526887      12.53812487      19.21358398 
H      13.19216023      30.02381204      30.22758118 
H      13.84815365      28.40757299      29.77242533 
H      14.49731401      29.26065594      31.19813128 
H      32.83301648      20.13600380      32.02389379 
H      33.06156272      20.11772668      30.24956170 
H      33.89993559      21.34904219      31.23770992 
H      19.16714355      24.72579669      13.13257306 
H      18.32492979      26.20902611      13.69458805 
H      19.13597048      26.18969134      12.08694374 
H      15.98119409      29.12204924      16.93791543 
H      16.20169960      28.99603109      15.17445242 
H      14.93255490      28.02982620      15.99328060 
H      26.89216416      10.55282722      22.97880290 
H      25.69167529      11.71451577      23.64370070 
H      25.55544364      11.16947526      21.95236211 
H      14.50398098      34.25885274      25.93993734 
H      14.65241987      33.16276498      27.35018950 
H      15.18651198      34.87388619      27.47249258 
H      14.71287645      21.38053715      33.41526253 
H      14.31056275      19.85308649      32.56996040 
H      16.01026060      20.24075493      32.94381791 
H      22.02823978      16.03954424      13.60154510 
H      22.73009618      15.00615228      14.88173709 
H      21.06592474      14.68412972      14.27826545 
H      22.40694063      29.79744714      13.32228803 
H      23.41230844      30.08290427      11.86271893 
H      22.91108865      28.41191285      12.30128957 
H      19.45401322      20.24960269      12.80460881 
H      20.89246951      21.05561888      12.09789763 
H      21.08461949      19.92787617      13.47157342 
H      22.63996727      33.32860144      15.01788489 
H      20.91572632      33.83805209      14.94436882 
H      21.68720568      33.49465094      16.52775743 
H      24.02486412      36.39666504      27.75668010 
H      24.89882241      35.29318877      26.63476280 
H      23.13347913      35.54208609      26.44879220 
H      11.97611123      17.74472602      31.08843228 
H      12.55433334      19.37118019      30.60867918 
H      11.22416772      18.59169784      29.70472845 
H      26.08134329      35.03046610      21.35059406 
H      25.79233258      35.23469840      23.11540549 
H      26.78170025      33.86349270      22.51882754 
H      29.75286718      21.58542740      11.52217948 
H      29.08297592      20.00507537      11.00576612 
H      28.41201331      21.52629342      10.33275228 
H      15.51304563      21.55948253      15.01396708 
H      16.90354413      22.46707482      14.32711543 
H      17.19338380      21.07766630      15.41979238 
H      28.28574793      15.71406838      15.46702311 
H      28.01282232      15.40269875      13.72492330 
H      28.41645206      17.05950943      14.28981932 
H      15.55795643      12.40858013      30.61434717 
H      16.84449069      11.82017374      29.51284396 
H      17.17416350      11.98366881      31.26715842 
H      30.83857362      13.61338213      30.60080216 
H      30.00397685      14.74405128      31.71815989 
H      29.64509348      12.98468280      31.77784880 
H      28.04613910      35.97828283      29.68537141 
H      27.29086426      36.06209279      31.30719948 
H      29.03061735      35.65579518      31.14852360 
H      32.75625004      28.82708797      17.33835332 
H      31.64274182      29.91748569      18.21486492 
H      33.42048937      30.09936671      18.41468143 
H      26.73292809      15.99855526      34.09671524 
H      25.31683496      15.50389433      35.08543776 
H      26.54820652      14.28498808      34.60340825 
H      12.89255503      29.78638205      21.25605461 
H      13.28893208      31.27560191      20.34065736 
H      12.07881296      30.12686454      19.68816575 
H      12.38218644      27.47518808      25.75120141 
H      11.14343316      26.63983725      26.72558269 
H      12.11978502      27.95759203      27.45328164 
H      36.09013038      20.03612582      25.91766607 
H      36.94047880      20.14814758      27.49868141 
H      36.11805386      18.62868972      27.02997296 
H      29.84621195      25.58627140      14.51245494 
H      31.59108856      25.21794086      14.69191546 
H      30.56515553      24.23818145      13.59313323 
H      20.17178805      23.59480373      36.14415082 
H      20.39666056      25.21898502      36.87811573 
H      18.75123596      24.63071546      36.49926060 
H      36.74483097      25.83645544      25.70588666 
H      37.43928345      24.43759209      26.59912265 
H      36.32449443      24.16274285      25.21860582 
H      19.91084573      19.75503313      36.89810372 
H      18.85379268      18.82342784      35.78897166 
H      20.62693619      18.56678428      35.74589894 
H      32.26987492      24.40716359      32.64803298 
H      33.03364064      25.92909192      33.21948519 
H      31.24060130      25.76314283      33.21085504 
H      25.90626297      19.27045530      11.57737322 
H      25.28547863      17.68825203      12.14478476 
H      24.55409286      18.47722236      10.70265032 
H      14.81280667      33.61554595      21.79553373 
H      15.77189441      34.64555380      20.69064809 
H      15.69456145      32.87093806      20.42585956 
H      15.44830280      25.90745380      33.17969309 
H      14.28124030      24.84167548      32.32702370 
H      15.98516820      24.33450390      32.49381286 
H      11.11080671      27.09851345      20.67681893 
H       9.75668532      27.12880915      21.86084549 
H      10.75991539      28.58943649      21.61034064 
H      22.17507576      11.76693359      17.33507116 
H      22.01166982      13.25602257      16.37346036 
H      22.96378382      11.87405059      15.72439880 
H      12.79236790      23.43743831      17.19385193 
H      12.19064613      25.10313783      16.90084553 
H      13.95349693      24.74144993      16.81193304 
H      22.64052172      11.87617492      27.57484223 
H      21.38638837      11.11301066      28.61571097 
H      20.89740253      12.13063744      27.21290640 
H      16.60179958      15.01834112      32.62040636 
H      17.58165906      15.74635510      33.93232863 
H      15.78730056      15.80395864      34.01547768 
H      13.37355520      16.17684649      21.25559653 
H      13.81134729      14.71208497      20.30370539 
H      13.78042351      14.64970152      22.09198199 
H      12.82792732      13.87911200      26.85445591 
H      12.84155924      15.54912568      27.52909524 
H      12.51236334      15.28863227      25.78503148 
H      27.68803183      33.02174417      16.22662123 
H      26.91931345      34.03002554      14.94918384 
H      26.97844931      34.60080514      16.64647730 
H      31.81208498      14.16730734      24.73901027 
H      32.27172998      13.69780493      26.40395234 
H      31.74769163      12.44348496      25.23964685 
H      18.17268804      12.95052653      18.03029676 
H      17.95589673      12.69865040      19.79010970 
H      17.70086522      14.32235204      19.09368906 
H      28.61282069      35.19065423      25.14306172 
H      28.68279665      34.85185631      26.90424875 
H      29.43972748      33.72156200      25.74921661 
H      12.00823931      23.37091485      28.71728041 
H      11.11178080      21.81825990      28.81680008 
H      12.71770019      21.98590717      29.60603367 
