699
Properties=species:S:1:pos:R:3 i=114 optimized=T E=-11392.3576181222 pbc="F F F" jobid=279_84-Ag-59_9-000010-PBE
Ag      33.22679421      25.29595131      26.00568011 
Ag      32.07426621      29.11719438      21.58351161 
Ag      34.55837258      27.93228024      25.45692212 
Ag      29.84477689      15.05043789      19.73245811 
Au      33.94026445      19.59386573      23.70771443 
Ag      26.99300542      23.41565306      13.26307884 
Au      18.02158168      33.19849266      28.25674126 
Ag      28.44172316      30.64348734      18.25110817 
Ag      24.94187367      21.23075536      23.28108927 
Ag      26.27619835      23.24559030      24.94688098 
Ag      28.19868484      25.10082351      23.67382391 
Au      23.76053739      21.62237092      29.03889443 
Au      23.28194101      27.85414694      27.02688672 
Au      26.90673116      23.07113663      22.06708746 
Au      22.39367029      19.57233150      27.40388683 
Au      27.19752183      21.12837434      26.75418318 
Ag      22.06574824      21.50377651      22.73776672 
Au      21.05223934      23.56111289      20.89861280 
Ag      27.64551658      25.28407763      26.55496100 
Au      19.95483511      24.04721809      26.70042919 
Au      25.51545667      21.03731377      20.42791764 
Ag      24.22245642      25.72624488      28.83049686 
Ag      23.86338037      27.70366468      24.13293998 
Au      26.14193309      27.56752649      27.62723455 
Ag      20.86266386      21.88180377      28.41722214 
Au      22.85091578      23.72765037      27.22073892 
Ag      21.47495268      21.67581464      25.60915965 
Ag      19.49708547      19.80049836      26.87747502 
Au      25.84701403      19.12304872      25.09903837 
Au      25.13005590      23.59627302      30.72460945 
Au      23.07436321      25.39745578      19.63018943 
Au      21.00100320      27.97133271      23.60911550 
Au      26.67876756      27.36322165      24.73373357 
Au      22.62515174      21.33059748      19.85835375 
Ag      21.91164658      25.87328728      25.42249433 
Au      27.10079148      25.44616566      29.43832432 
Au      20.16617969      19.64439524      24.02808508 
Ag      25.92744857      25.11763935      20.25533379 
Ag      23.56326641      19.19894863      21.63793618 
Ag      22.24015321      23.93034049      30.06710064 
Au      21.05274857      17.47670266      25.82909959 
Au      21.57961500      27.67512413      20.67268873 
Ag      24.45918197      27.44738662      21.30615870 
Au      24.56411521      23.12991825      18.58018719 
Au      28.58326525      23.15028301      28.40926323 
Ag      18.61945627      21.95642147      25.08128160 
Ag      26.68178778      21.25328110      29.65191489 
Au      22.36029356      30.06343016      25.17548774 
Ag      27.26191437      27.16267793      21.89332069 
Ag      21.75274779      19.72759226      30.24730685 
Ag      18.39744005      26.35452532      27.69881080 
Au      23.07550530      21.70227756      31.92656177 
Ag      21.64897815      23.41086402      17.99130458 
Ag      17.05355120      24.28271398      26.14644164 
Ag      27.50092939      22.79622121      19.13295140 
Ag      23.91047425      17.19265583      26.32625004 
Ag      23.27959274      17.45803691      29.22336431 
Au      25.20252938      29.75122217      25.79726960 
Au      21.63297251      17.24734527      22.90812109 
Au      28.76849949      18.77170115      25.69905276 
Ag      22.90115692      29.82041282      22.31123133 
Ag      25.34912372      25.34515998      23.11183339 
Ag      20.11895376      25.66335448      19.03870813 
Ag      29.61704167      27.23109058      25.33234321 
Au      19.31248096      24.22495712      29.55243018 
Au      17.96400523      22.13880063      27.90059738 
Au      19.84652193      28.31798942      29.34376825 
Ag      23.62406532      25.86490841      31.66866172 
Ag      20.79544539      26.33085473      31.21600361 
Ag      26.40792107      18.96196688      22.19054120 
Ag      24.60371992      19.47870240      30.84489146 
Au      20.36015079      17.63989092      28.72289834 
Ag      28.86530239      24.83210440      20.79335435 
Ag      19.53759358      30.22712401      24.63501610 
Ag      25.80820519      29.58665705      22.88443059 
Ag      25.02988535      27.25052832      18.33934915 
Au      28.47657996      20.75776504      20.92374569 
Ag      29.02249378      27.30515207      28.21623949 
Au      30.06233078      20.89143427      27.28955582 
Ag      18.18845375      23.89183066      20.33614145 
Au      17.80292892      19.72934799      20.65520693 
Ag      25.59563407      27.69077073      30.49639721 
Au      28.09748411      23.36724123      31.26779084 
Au      21.77673142      30.21921703      28.14213784 
Au      21.70385749      24.09354987      32.90268387 
Ag      18.72136208      27.96514456      20.09020165 
Ag      16.33761951      21.98410150      21.66786887 
Au      30.54941009      25.08414076      27.08028350 
Ag      23.41163664      23.53458846      24.36240083 
Ag      20.03766532      30.01735295      21.68161585 
Ag      16.59986125      20.01845346      26.37856679 
Au      26.74416962      17.04250916      26.93378138 
Au      29.91327005      25.19591022      29.98403052 
Ag      17.56361415      28.44735302      25.93799041 
Ag      16.23566841      26.33680582      24.29640429 
Au      28.63515880      29.19905787      23.48415770 
Au      27.88073844      26.89645493      19.06801333 
Ag      24.13057030      19.04385137      18.69775700 
Ag      27.38807853      16.79430606      24.04894267 
Ag      26.96026527      18.77496740      19.30540896 
Ag      25.87963748      21.39036395      32.56183358 
Ag      12.68187335      18.82655504      21.98314195 
Ag      23.17146306      21.15395353      16.93714685 
Ag      26.38751673      29.23143739      19.95583535 
Ag      19.98609680      19.56523973      32.46840233 
Ag      26.10781352      17.22418691      29.78972780 
Au      29.26723844      18.67618378      22.80835906 
Au      27.52128645      29.67136283      29.22396355 
Au      15.18860851      22.36684425      27.32053740 
Au      26.08072713      20.84153538      17.45421973 
Ag      24.47250534      23.79298113      33.52518420 
Ag      23.69265605      25.22255205      16.71090485 
Ag      17.51984315      17.93658326      28.14105678 
Ag      18.96083890      30.48851124      27.57275568 
Au      23.54949919      29.48699648      19.46764459 
Au      22.50544840      25.62753978      22.53557735 
Ag      16.05549343      20.20797421      29.24854724 
Ag      27.47636477      19.16909443      31.44931152 
Au      29.18481472      28.92125754      20.64080346 
Ag      16.42676129      24.37318090      28.98167167 
Ag      31.95864998      22.74910651      26.04976623 
Ag      16.77736999      21.67093560      18.79583889 
Ag      24.91799203      31.60948302      20.87671900 
Au      21.99152201      31.74203166      20.39565667 
Au      20.79446232      25.46147921      16.26215495 
Au      24.40297990      31.85634396      24.01804178 
Ag      20.66357286      29.72709547      18.82876795 
Au      23.14771771      14.97049561      21.63285075 
Ag      30.37955591      22.54763389      19.70634124 
Ag      25.10417149      22.95710541      15.63448599 
Ag      18.78236352      23.70155137      17.36564068 
Ag      28.94234650      20.51324272      18.10245209 
Ag      17.52208353      22.36825109      30.90213160 
Ag      17.03820336      28.69400628      28.80084710 
Au      27.85207974      16.71070382      21.14248464 
Ag      15.54765787      26.77042211      27.07495548 
Ag      18.96916593      15.64080376      27.06597848 
Ag      19.67274679      15.48101747      24.01651684 
Au      17.89420421      26.62403325      30.67682200 
Au      20.24981350      15.42925282      21.19083199 
Au      27.44388726      31.60904002      24.36436247 
Ag      24.91273729      15.18375588      28.22961713 
Ag      23.99652056      23.32339290      21.49096837 
Ag      20.23354793      21.24310363      16.37344888 
Ag      27.93637525      22.65446015      16.12939221 
Ag      31.40704732      20.34284218      21.69549178 
Ag      26.67414539      31.79326307      27.41854022 
Ag      25.54724577      14.91660152      25.27610791 
Au      28.60370328      16.12573907      28.86726292 
Au      25.99672282      14.87254403      22.40006144 
Ag      32.55900561      22.60106491      23.22683621 
Au      25.65745812      30.34653611      31.43229175 
Au      22.86922664      30.79364255      30.78903916 
Au      24.25145417      16.89081853      31.88458295 
Ag      31.28055166      17.86233772      24.75670661 
Au      17.14486451      26.05660501      18.59959388 
Ag      31.52957634      22.96091786      28.83070073 
Ag      29.36794017      15.97150888      25.99809440 
Au      15.60603133      29.16977484      23.94919000 
Au      16.14225970      28.93583688      21.07234673 
Au      17.02791942      31.19006038      25.50782336 
Ag      29.39478333      24.77068148      17.93430380 
Au      30.69613166      18.02010300      27.62803404 
Au      18.65334973      17.53802867      30.88223840 
Ag      23.81287409      19.58033194      33.58308828 
Ag      18.04189239      30.70395349      19.69814818 
Ag      17.50236889      31.01454511      22.60755313 
Au      14.20232128      27.09340059      22.44406203 
Au      32.62723853      19.97520543      26.46935192 
Ag      24.78365813      25.54621909      25.98175863 
Ag      32.91579907      26.65168471      23.22368466 
Ag      25.08783812      20.13741566      14.95365734 
Ag      20.02232003      30.96696574      30.31865893 
Ag      31.81374594      27.61341603      27.10315668 
Au      23.66063784      28.54859029      32.55179980 
Ag      29.89569105      15.85697913      22.99063661 
Au      22.63512960      16.94479819      34.50660507 
Au      13.38395550      19.45870787      28.36804258 
Ag      24.17519098      27.93319843      15.63700210 
Ag      15.70019875      17.51991070      30.55495871 
Au      25.71468358      25.67474144      14.75063138 
Ag      28.55972569      30.75699902      31.76925234 
Au      22.72841168      30.12908489      16.84497539 
Au      22.07362042      21.70658229      34.95189170 
Au      31.29442274      28.50817618      30.97052277 
Au      19.34484640      14.16828185      29.57569881 
Ag      22.88269037      25.75025101      13.93444492 
Ag      16.11453557      15.22972189      27.97983995 
Au      25.72755388      33.83865717      29.27213700 
Ag      26.76698809      14.56101083      30.91930024 
Au      28.70443254      13.34349079      24.05049416 
Ag      16.37826084      17.17405296      19.77358755 
Au      16.18424694      17.34911934      23.14789468 
Ag      20.84746805      15.55908709      17.75781916 
Ag      11.91231770      24.45941044      22.75875492 
Ag      14.66046517      29.97647454      26.85436008 
Ag      24.33010332      21.38670780      26.14434981 
Au      15.04492753      19.88553378      20.23754588 
Au      25.36016936      31.10947430      18.08846939 
Au      28.32270224      20.24861287      14.49193892 
Ag      30.17827131      26.95687446      22.50926858 
Ag      31.01881141      24.84662148      24.24167359 
Ag      31.70862472      24.72780248      21.44886287 
Au      20.53395518      23.79634174      23.84214546 
Ag      25.23503871      14.96687136      16.22609774 
Ag      30.64664011      30.10448257      25.35262942 
Ag      25.69568884      23.39960623      27.82179010 
Ag      27.16661888      27.55604844      16.37707507 
Au      20.67742540      31.37907477      33.23689832 
Au      17.69408243      24.04017739      23.25987731 
Au      23.01183156      19.34270566      24.47794695 
Ag      27.80235689      20.93999117      23.85440750 
Au      19.61246565      25.91223554      21.96699126 
Au      25.12757378      30.97305245      14.91840988 
Ag      25.22592603      19.30921082      27.99070002 
Ag      19.04562646      26.13160277      24.87263027 
Ag      20.43465178      28.18663402      26.50004967 
Ag      21.34145173      26.02426165      28.29957010 
Au      29.10543066      23.02259913      25.48496155 
Ag      19.21299589      21.74472973      22.19359001 
Au      24.54874942      17.04692186      23.45272056 
Au      22.74813683      28.06420778      29.89501326 
Ag      20.72690182      19.48142885      21.10234768 
Au      20.31206335      22.11705031      31.27011923 
Ag      24.70590738      29.97123430      28.73925640 
Ag      18.10809867      28.23240707      22.99010122 
Ag      28.12815223      18.96308201      28.62152219 
Ag      18.91533941      20.09758722      29.70730918 
Ag      29.77636209      22.71703557      22.63586976 
Ag      19.71414375      21.57192089      19.21653045 
Ag      18.18857379      17.73610847      25.25951410 
Ag      15.74944146      22.19765319      24.47831106 
Ag      16.71372647      26.12879815      21.40633875 
Au      26.53386839      24.91723561      17.39515812 
Au      28.05410451      29.45452452      26.36570262 
Au      17.28930202      19.89757083      23.56283108 
Ag      18.85472100      17.66545977      22.33911241 
Ag      30.70401958      20.67766216      24.43909753 
Ag      22.18668748      27.48363719      17.81687061 
Ag      21.27707492      19.32850266      18.22883393 
Au      22.26385512      17.21501509      19.91788459 
Au      21.94736834      15.44982318      27.57725299 
Ag      18.90897797      24.42846658      32.37039649 
Au      26.39932288      25.54424435      32.36667430 
Ag      14.85458470      24.28744567      22.69425743 
Au      29.59329636      20.79269844      30.17001733 
Au      23.72580135      31.99031204      26.85755439 
Ag      22.52578334      15.13844740      24.76960063 
Ag      25.05210608      16.87665350      20.48837263 
Ag      28.45539681      27.72890830      31.09204771 
Ag      19.36594998      17.51047551      19.50279031 
Au      27.83850956      31.24965467      21.61075933 
Ag      15.37917359      24.04248546      19.83190732 
Ag      21.42410249      17.12368399      31.44673832 
Ag      21.23730889      32.12330238      23.22132574 
Ag      14.22375429      24.49360722      25.46075285 
Ag      22.24861558      23.13528136      15.07826923 
Ag      30.69404022      26.75687776      19.59486430 
Au      18.46654094      19.47833273      17.71015268 
Ag      23.00184669      18.41078016      16.08428082 
Ag      15.44789421      17.45283351      26.02649467 
Ag      30.28843508      29.74299899      28.26434439 
Ag      29.86905364      18.24303432      19.99375498 
Au      13.67043860      21.70541884      22.52695141 
Ag      30.26489088      17.74283861      30.77763499 
Au      26.92649491      16.03023708      18.51826013 
Ag      20.80003410      32.28751713      26.34684092 
Ag      19.31953943      27.89801172      17.16700540 
Au      25.90543568      18.03421129      16.69323082 
Ag      14.56848682      19.55687210      24.26116225 
Ag      19.06750533      33.18387317      21.04923440 
Ag      23.91951866      22.10159212      12.91658224 
Ag      34.58607695      22.55824298      27.37457212 
Ag      29.04786346      32.29107090      29.06255911 
Ag      19.34474253      31.09630366      16.62113291 
Au      23.60253480      14.99890324      18.85598338 
Ag      14.21524365      26.98941519      19.44041726 
Au      20.83241186      26.61281513      34.34003660 
Au      19.24306992      28.58160463      32.12603188 
S      20.79558135      15.84354885      33.53879812 
S      28.44991530      32.63060719      19.69131782 
S      24.06558181      22.73843923      35.74347270 
S      24.42776990      18.11051871      35.50688507 
S      12.49624516      18.16383344      24.29395526 
S      32.25289670      17.38752638      29.38140669 
S      31.54666093      14.82038022      21.43464999 
S      29.66240679      19.19260243      16.12365992 
S      28.22723251      21.93317904      33.24658221 
S      22.94623696      27.66154175      34.69970947 
S      13.43150783      30.03587514      24.75263677 
S      16.55550226      17.93762447      17.42944302 
S      32.81246025      23.11528568      19.89860502 
S      26.77710048      31.02834908      33.49925708 
S      22.70407380      32.41212011      32.65079865 
S      17.23001344      31.72266318      17.57860057 
S      11.26214884      22.14641443      22.51721366 
S      25.13862701      13.07903618      26.91783329 
S      33.82576397      29.00813014      27.47363119 
S      28.30947491      26.65647149      33.38061998 
S      23.69581838      24.35508845      12.02755361 
S      27.49567126      25.81724764      13.06754036 
S      18.91847997      33.19601266      30.42073625 
S      28.80648321      17.50659948      32.72301421 
S      21.14537639      34.12172111      24.70190177 
S      30.90567635      32.01140884      27.41210243 
S      29.01813930      29.18408649      16.38752076 
S      33.47337892      17.27996027      23.77486140 
S      34.86900194      21.76743289      23.60811882 
S      19.09484038      13.62907527      25.52428330 
S      20.85875682      33.70487204      19.48620899 
S      12.78314142      19.29933476      19.61001346 
S      18.65616090      30.29093279      33.75071439 
S      31.86820798      30.81846638      23.29387540 
S      35.35165928      27.05878816      23.36037451 
S      30.99651338      30.82026449      31.36221231 
S      23.07205535      13.18220915      23.29365146 
S      32.11851771      19.16236076      19.59563762 
S      28.61449252      14.46260991      17.71552072 
S      15.26171448      30.37493777      29.15919523 
S      31.62985075      21.84685843      31.06782531 
S      20.74684755      27.03788220      14.36635202 
S      17.12146839      27.00697960      16.33298548 
S      27.38542152      12.86914016      22.15231014 
S      16.85075229      33.52742546      26.24192774 
S      15.20020174      21.61779046      31.20235927 
S      21.14442678      16.81165054      15.68747269 
S      24.85550466      29.13606441      13.48612286 
S      19.98911068      22.43822407      14.19768232 
S      21.28567107      31.17758647      15.19287396 
S      23.66588569      34.06640380      28.15947743 
S      13.60759806      17.30727438      29.31302521 
S      24.32157756      33.58101313      22.29448387 
S      27.23448465      21.09440254      12.56870894 
S      16.43509301      23.07056693      16.78126878 
S      26.01424815      16.62676621      14.66105527 
S      17.04756239      14.38068861      30.07901516 
S      28.89652236      13.93393310      29.93058650 
S      27.74492363      33.81430460      30.48975277 
S      32.88541706      27.92272774      19.61687869 
S      25.01216317      14.65270308      32.56471694 
S      14.46641464      29.42285180      19.34418915 
S      13.22324428      25.87688559      27.27567756 
S      34.69706680      20.17291449      27.75711283 
S      30.33707927      23.45557299      16.07042712 
S      18.65440319      25.66766221      34.52629126 
S      35.38936882      24.81953794      27.11776894 
S      19.95833755      20.66645660      34.69878386 
S      31.95955737      26.24054985      30.82106058 
S      23.50811187      19.68704277      13.10701278 
S      16.97598843      33.42569246      22.26149562 
S      15.51197489      26.07997522      30.56128764 
S      11.79262837      26.85901744      22.82342162 
S      24.31866293      13.13577259      17.51023603 
S      13.11573672      24.82888545      19.19362891 
S      21.61943613      13.65275021      29.21550830 
S      17.00927685      17.57340239      32.66454205 
S      15.79448347      15.56430039      21.56534718 
S      14.71029579      15.08615039      25.98795716 
S      25.44752540      32.82461045      16.35456883 
S      30.04070416      13.57160635      25.96895694 
S      20.01298308      13.86177227      19.32592057 
S      27.11577283      33.62190140      25.66710021 
S      12.85559383      21.58758861      27.50245052 
C      21.31126777      14.09946170      33.30065759 
C      30.21970848      33.02742745      19.99656402 
C      23.47237324      24.08595665      36.84418382 
C      23.76153413      18.87199299      37.03968301 
C      11.10600083      19.16616059      24.95416648 
C      32.50309668      15.57679989      29.22709504 
C      31.64072455      12.99371405      21.62834201 
C      31.36204071      19.77953063      15.75737331 
C      28.06835576      22.96082732      34.75810817 
C      22.59944364      29.13093105      35.74224849 
C      13.37360758      31.79971140      24.24173514 
C      17.09332850      16.55014867      16.35299461 
C      33.42622839      24.10744225      18.47800101 
C      26.40868545      32.80245451      33.77511580 
C      22.27566587      34.05766047      31.96549421 
C      17.34520538      33.55927658      17.57309622 
C      10.68874986      22.10318730      20.77176961 
C      26.73722123      12.29160628      27.35202194 
C      34.79491699      28.22751566      28.82489199 
C      27.63408816      27.80320068      34.63991603 
C      22.25320925      24.25346935      10.88921865 
C      26.73825704      26.43297431      11.51432305 
C      17.40677457      32.98254680      31.44404547 
C      29.62198404      18.41555445      34.09651353 
C      19.62488196      35.11533374      24.45702008 
C      32.52025454      32.44753146      28.17318202 
C      28.89787096      30.16540539      14.83997779 
C      34.49863839      16.65172519      25.16424089 
C      35.75247251      21.86160117      22.00116294 
C      17.46681186      12.97564492      24.98454155 
C      21.69699519      35.18956031      20.16640053 
C      12.84363600      17.71356372      18.68648690 
C      18.80094969      29.57442254      35.43101957 
C      33.55629308      31.31609125      23.81759574 
C      35.75825228      28.49204330      22.28349063 
C      31.78379807      31.07349584      33.00877349 
C      21.57266977      12.20415625      22.90043916 
C      33.36115106      17.85624757      19.94608709 
C      28.01436896      12.76972010      18.10684691 
C      13.94726880      29.57031456      30.16222989 
C      33.00064946      20.63196619      31.08614425 
C      19.44161922      26.36106829      13.26815936 
C      15.90338945      28.36755590      16.19788873 
C      26.34957255      11.43767220      22.64793643 
C      15.15097132      33.85813729      26.85403834 
C      15.09190583      20.73171106      32.80681037 
C      21.75913799      15.63735216      14.41491039 
C      23.34920290      29.50337874      12.50592401 
C      20.05261768      21.16887959      12.86944365 
C      21.72271105      32.96267810      15.23713601 
C      23.99410814      35.39674516      26.94083752 
C      12.29411519      17.28386173      30.60343190 
C      25.83784552      34.60350640      22.40237387 
C      28.57799157      21.10239295      11.30672621 
C      16.40754722      21.86241381      15.39894334 
C      27.77814514      16.21054713      14.37610563 
C      16.46956532      12.63277535      30.14201511 
C      29.98970278      13.99353092      31.40863788 
C      28.47270624      35.47428102      30.17308196 
C      32.80259553      29.15020295      18.24722439 
C      25.97306587      14.88641198      34.11379379 
C      13.04038359      30.12379316      20.26488954 
C      12.00757075      27.04692730      26.55606079 
C      36.16975184      19.68423980      26.77472441 
C      30.60136240      24.62455107      14.67862298 
C      18.79254767      24.43698710      35.88374062 
C      36.67948879      24.59932990      25.82444362 
C      19.90254715      19.34618385      35.97258148 
C      32.04466260      25.68052728      32.56674772 
C      24.42781650      18.78928249      11.79687864 
C      15.66553410      33.51587680      20.97475595 
C      15.09120693      25.33856901      32.18639974 
C      10.83870586      27.24165881      21.30056996 
C      22.83110752      12.50146787      16.63811207 
C      12.94784129      24.53313554      17.38717633 
C      21.56885375      12.12877642      28.19436989 
C      16.97994098      15.91195601      33.43598488 
C      13.98965610      15.24061351      21.56608109 
C      12.95273335      15.02129815      26.51024448 
C      27.16848035      33.40861765      16.11424906 
C      31.78133062      13.47808914      25.39103941 
C      18.22267393      13.61431372      19.00117348 
C      28.71400537      34.51610968      25.74300703 
C      12.19532428      22.49441749      28.95391502 
H      22.34125755      14.03299619      32.93163459 
H      21.22389009      13.57680404      34.25984503 
H      20.62721208      13.65388174      32.56737555 
H      30.65628397      33.39292892      19.05989226 
H      30.26843132      33.81488454      20.75762807 
H      30.77323173      32.15149164      20.35185453 
H      24.35250235      24.65676749      37.16373499 
H      22.77881699      24.75465411      36.32264206 
H      22.98480076      23.64278719      37.71938974 
H      23.53446826      18.08354674      37.76529856 
H      24.54553665      19.52885978      37.43525987 
H      22.86906531      19.47368667      36.83696357 
H      11.24485503      19.27355495      26.03688787 
H      11.06347127      20.15657500      24.48833053 
H      10.17455339      18.62526053      24.75075534 
H      33.22616932      15.40371801      28.42111354 
H      32.91933745      15.20594054      30.17136220 
H      31.56554890      15.05742481      28.99938861 
H      30.67030750      12.56481216      21.90241635 
H      31.98938929      12.55545180      20.68661508 
H      32.36918315      12.77384947      22.41788643 
H      31.38504078      20.87048282      15.65034704 
H      31.98708350      19.48047112      16.60892778 
H      31.71477052      19.29536558      14.84036168 
H      27.85015173      22.29147151      35.59834950 
H      29.01986719      23.47865493      34.92411681 
H      27.26488346      23.70000923      34.65365642 
H      21.92801166      29.83478047      35.23176848 
H      22.15634783      28.79631490      36.68716302 
H      23.56012718      29.62314528      35.93638558 
H      12.74377298      32.35358806      24.94725089 
H      14.37628806      32.23964423      24.20522901 
H      12.92291671      31.84047045      23.24273503 
H      17.14141350      16.92093564      15.32234843 
H      18.08126717      16.17062895      16.64008856 
H      16.34843509      15.74919107      16.42211987 
H      32.59244616      24.39754843      17.82711260 
H      33.94405204      25.00140648      18.84162491 
H      34.12167340      23.47356233      17.91470778 
H      26.75900690      33.42045834      32.94194218 
H      25.32567645      32.91997271      33.90010179 
H      26.92440031      33.09755483      34.69739639 
H      21.39630014      34.00831046      31.31506716 
H      22.08121812      34.73232089      32.80737213 
H      23.14462493      34.40799405      31.39460215 
H      16.47615879      33.95456110      18.11168220 
H      18.26405860      33.91152091      18.05414594 
H      17.31351012      33.90647567      16.53433788 
H      11.35061260      22.69067142      20.12527494 
H      10.66826398      21.06107045      20.43284751 
H       9.67683723      22.52444127      20.74750018 
H      27.53114168      13.03086536      27.49508885 
H      26.60696903      11.72309442      28.28020242 
H      27.02437167      11.61188144      26.54082473 
H      35.75027691      28.75889616      28.90382324 
H      34.22992579      28.33689154      29.75873989 
H      34.97977759      27.16609693      28.62545414 
H      27.45561897      27.23257364      35.55882010 
H      28.37136417      28.59141223      34.83121338 
H      26.69819381      28.26047616      34.30348765 
H      22.08197579      25.24794230      10.46032176 
H      22.48134073      23.54633056      10.08362811 
H      21.35473349      23.92793241      11.42468559 
H      25.83330139      25.86809640      11.26479081 
H      26.48883360      27.49172412      11.65315116 
H      27.48272211      26.32198025      10.71697582 
H      17.73072013      32.78609681      32.47292823 
H      16.82733712      33.91148501      31.40664865 
H      16.79784630      32.14735326      31.08061713 
H      30.55042798      17.90121231      34.36770328 
H      29.83344531      19.45281259      33.81451047 
H      28.93643212      18.41007566      34.95238754 
H      18.73897390      34.49281854      24.30493024 
H      19.47253496      35.74196449      25.34335437 
H      19.77231491      35.75408097      23.57774812 
H      32.45719659      32.35693574      29.26273334 
H      33.28804055      31.76152030      27.79748315 
H      32.75899633      33.48000496      27.89295520 
H      29.64597269      30.96612221      14.86475085 
H      29.11186458      29.49480133      13.99920306 
H      27.89365797      30.59181029      14.70861464 
H      34.26798062      15.58537511      25.27688359 
H      35.55819988      16.76903350      24.91157568 
H      34.27106804      17.17803865      26.09748603 
H      35.06113225      21.71918974      21.16312269 
H      36.18896769      22.86604695      21.93824391 
H      36.54786397      21.10934031      21.98071831 
H      16.93649152      12.57013060      25.85383287 
H      16.84902188      13.75143156      24.52198779 
H      17.65154014      12.17412216      24.25953097 
H      22.62133111      35.34613147      19.59815534 
H      21.03009636      36.04944884      20.03615980 
H      21.94423431      35.05700757      21.22539584 
H      13.28554513      17.90792154      17.70267060 
H      13.44406824      16.95878856      19.20469918 
H      11.81407288      17.35411059      18.57215934 
H      18.85095695      30.39525473      36.15499873 
H      17.90043594      28.97296357      35.60243044 
H      19.68062073      28.92643896      35.51705792 
H      34.10314087      30.48299024      24.27962096 
H      34.11247535      31.68846304      22.94982251 
H      33.45379175      32.12320589      24.55312133 
H      35.79893495      28.13109422      21.24951777 
H      35.00266689      29.28144398      22.34944315 
H      36.73574842      28.88684322      22.58212944 
H      31.37440961      30.38575456      33.75430333 
H      32.86535890      30.92574536      32.91427890 
H      31.57695923      32.10719473      33.31059424 
H      21.44526386      11.46684774      23.70233110 
H      20.68208753      12.84165752      22.85065712 
H      21.72195285      11.69713355      21.94082538 
H      33.42480420      17.19691670      19.07279831 
H      34.32847962      18.34554789      20.11032696 
H      33.10291149      17.26097547      20.82690868 
H      27.18823991      12.52114531      17.43050071 
H      28.85028315      12.07922785      17.94351670 
H      27.67381136      12.69627788      19.14509056 
H      13.00907723      30.11850022      30.02295772 
H      13.81720261      28.51938523      29.88283516 
H      14.25159423      29.62259342      31.21417180 
H      32.83892434      19.93412698      31.91651636 
H      33.07037654      20.07225022      30.14901084 
H      33.93549397      21.18296250      31.24561635 
H      19.53671198      25.27321893      13.17012992 
H      18.46571972      26.60343913      13.70781705 
H      19.54172469      26.84093695      12.28736637 
H      16.02108650      29.11381596      16.98891126 
H      16.05908455      28.85093806      15.22557931 
H      14.89190753      27.94648492      16.24175638 
H      26.99895461      10.56265867      22.76221643 
H      25.80857919      11.64204881      23.57777014 
H      25.62621887      11.26764982      21.84160628 
H      14.49765474      33.95273819      25.97924932 
H      14.79530332      33.05158444      27.50497882 
H      15.16520991      34.80628784      27.40356829 
H      14.84753012      21.46448700      33.58499010 
H      14.29082196      19.98539655      32.74655466 
H      16.02880416      20.22719348      33.06108694 
H      21.89895997      16.19781603      13.48260495 
H      22.71702780      15.18558462      14.70508044 
H      21.01060872      14.85254146      14.25608550 
H      22.52744415      29.84583537      13.14516419 
H      23.59241668      30.27048204      11.76231031 
H      23.05837028      28.57472072      11.99959331 
H      19.08156567      20.66105594      12.83836663 
H      20.23028284      21.66918427      11.91003498 
H      20.84758668      20.43624450      13.04342123 
H      22.72851342      33.08030633      14.81500947 
H      20.99426407      33.50214147      14.62044231 
H      21.70614818      33.35397383      16.25979954 
H      24.05938083      36.34698349      27.48270543 
H      24.92347492      35.20096086      26.39393491 
H      23.14461404      35.41081833      26.24509365 
H      12.39847503      16.34903181      31.16650247 
H      12.38768090      18.13569511      31.28335490 
H      11.31607586      17.30856214      30.10963931 
H      25.83927006      35.27540895      21.53579644 
H      25.80875339      35.18048889      23.33323677 
H      26.73718591      33.97624592      22.38865577 
H      29.45607303      21.64848470      11.66315092 
H      28.85079825      20.06605390      11.07811513 
H      28.18051569      21.58704908      10.40724206 
H      15.40974024      21.41228725      15.34838045 
H      16.62665403      22.40475446      14.47204536 
H      17.15936070      21.07656556      15.54411586 
H      28.23970033      15.77997782      15.27186252 
H      27.81445696      15.48391755      13.55571417 
H      28.30759190      17.12771810      14.09044958 
H      15.38190449      12.64803671      30.27835155 
H      16.71704936      12.09921526      29.21963322 
H      16.94108375      12.13578022      30.99732542 
H      31.02996713      13.90713707      31.07574148 
H      29.85660115      14.92223065      31.97513924 
H      29.73930729      13.13384101      32.04109210 
H      28.55651343      35.67497843      29.10091407 
H      27.84083122      36.23450801      30.64590632 
H      29.46975026      35.49049002      30.62849373 
H      33.08636534      28.63803725      17.32033240 
H      31.79289839      29.55940317      18.13162731 
H      33.51409718      29.95827371      18.44974414 
H      26.74584317      15.65354980      33.98990944 
H      25.27851264      15.19035902      34.90641228 
H      26.43731904      13.92672722      34.36913246 
H      12.92883669      29.65481100      21.24887815 
H      13.21653238      31.19908481      20.38863685 
H      12.13218939      29.97075622      19.67037609 
H      12.35040792      27.46966786      25.60725974 
H      11.06692029      26.50971481      26.38818854 
H      11.84181350      27.85973618      27.27359946 
H      36.10677544      20.05315786      25.74486435 
H      37.05690558      20.09942990      27.26686701 
H      36.23385287      18.59011314      26.77235159 
H      29.86992087      25.43861663      14.68351949 
H      31.61118824      25.04104576      14.77234861 
H      30.51880984      24.07587862      13.73312179 
H      19.58192755      23.70368062      35.68504317 
H      18.98999887      24.96237004      36.82448146 
H      17.82902423      23.91728086      35.94893444 
H      36.91061822      25.57941094      25.39088859 
H      37.57274701      24.18199541      26.30272678 
H      36.33637229      23.92514241      25.03213331 
H      19.98950225      19.79814606      36.96676909 
H      18.92863419      18.85033212      35.87822726 
H      20.69921385      18.60618840      35.81922626 
H      32.16923396      24.59017175      32.54380265 
H      32.91620692      26.15001187      33.03682096 
H      31.12886589      25.93993735      33.10970075 
H      25.36568281      19.30393819      11.56255660 
H      24.65006143      17.77977828      12.16241902 
H      23.79219139      18.73790571      10.90544794 
H      14.69690198      33.44415962      21.48387746 
H      15.73196969      34.48293416      20.46359333 
H      15.75142787      32.70247403      20.24472751 
H      15.47637503      25.97693520      32.98869384 
H      13.99653950      25.28852209      32.23966241 
H      15.50342006      24.32612238      32.27258592 
H      11.27101246      26.74930050      20.42174952 
H       9.81025458      26.89418590      21.45318683 
H      10.83778152      28.32818121      21.15936108 
H      22.19798394      11.98832993      17.37088804 
H      22.25696907      13.30645199      16.16903138 
H      23.16797407      11.79227192      15.87278224 
H      12.51728700      23.53362328      17.25237894 
H      12.27413275      25.28366892      16.95981055 
H      13.92335213      24.56840526      16.88897470 
H      22.58311659      11.97421856      27.80384358 
H      21.28191441      11.29431164      28.84425128 
H      20.85575436      12.23315405      27.36851197 
H      16.85591272      15.13357069      32.67524690 
H      17.92498092      15.76129438      33.97174659 
H      16.13821155      15.89193883      34.13861863 
H      13.40686902      16.16791533      21.48565686 
H      13.75635828      14.57852533      20.72372271 
H      13.73804048      14.74336261      22.51059945 
H      12.66530705      13.96748441      26.60286981 
H      12.80286767      15.53498729      27.46561759 
H      12.34965118      15.51026727      25.73604991 
H      27.88282741      32.57884567      16.12780199 
H      27.22052894      33.93685640      15.15533007 
H      27.39881573      34.09401055      16.93812873 
H      31.97800857      14.19055359      24.58175026 
H      32.41597888      13.71314274      26.25399963 
H      31.98959420      12.45697683      25.05296969 
H      18.11761878      13.09798902      18.03992174 
H      17.81120152      12.99067735      19.80315794 
H      17.67736654      14.56480229      18.97561095 
H      28.95093130      34.89756178      24.74309577 
H      28.58803090      35.36084900      26.43199029 
H      29.52478130      33.87077462      26.09808510 
H      12.15849587      23.55614488      28.67627401 
H      11.18572769      22.12087737      29.15912433 
H      12.84099894      22.35599429      29.82905250 
