699
Properties=species:S:1:pos:R:3 i=146 optimized=T E=-11709.4791328145 pbc="F F F" jobid=279_84-Ag-90_0-000002-PBE
Ag      33.13551558      25.44877466      25.95028279 
Ag      31.87387208      29.35553457      21.64020419 
Ag      34.35182436      28.19249027      25.43555404 
Ag      29.75992711      15.03571883      19.61438425 
Ag      33.76282619      19.54801072      23.74491048 
Ag      27.12031694      22.90615121      13.26968444 
Ag      18.29139572      33.18979020      28.00524676 
Ag      28.55436726      31.03271095      18.38650697 
Ag      24.94505411      21.24413732      23.25398477 
Au      26.29692406      23.27037835      24.88550468 
Ag      28.16958656      25.09403071      23.60941566 
Ag      23.78347838      21.67518002      28.98897640 
Ag      23.34674580      27.89026269      26.95682959 
Ag      26.89185190      23.06810557      21.99446165 
Ag      22.39422577      19.60947046      27.39836118 
Au      27.23976732      21.18005485      26.73899008 
Ag      22.04440267      21.51752860      22.72739254 
Ag      21.04019364      23.55803831      20.86637802 
Ag      27.64739972      25.30953645      26.51719813 
Ag      19.97721859      24.04234078      26.64557994 
Ag      25.47135652      21.04098339      20.38894567 
Ag      24.27464668      25.76772325      28.75074594 
Ag      23.85672902      27.69655072      24.05322670 
Ag      26.17816451      27.61400033      27.55891444 
Ag      20.91826321      21.94208162      28.42471046 
Ag      22.86067897      23.74523709      27.16788724 
Ag      21.47647754      21.70317136      25.59293984 
Ag      19.52487704      19.90539243      26.86962672 
Au      25.85448715      19.13362352      25.09096598 
Ag      25.25662018      23.62753538      30.65484974 
Ag      22.98563974      25.35424408      19.60710077 
Au      21.00451038      27.94210458      23.48665541 
Au      26.66892399      27.38674475      24.67614984 
Ag      22.59546386      21.31833034      19.83660488 
Au      21.93854992      25.85745994      25.35432629 
Ag      27.15632021      25.47697370      29.40040460 
Ag      20.13567229      19.71812587      24.02306908 
Ag      25.87550938      25.09304464      20.17406893 
Au      23.53711022      19.23980337      21.67603397 
Ag      22.31832608      23.95903506      29.98593894 
Ag      21.07746366      17.56971951      25.80484288 
Ag      21.52744040      27.64202461      20.59234869 
Ag      24.39157216      27.40167850      21.23577222 
Ag      24.50560675      23.08858592      18.53556793 
Ag      28.61808094      23.18414697      28.42731007 
Ag      18.60083671      21.99135360      25.05588437 
Ag      26.71786186      21.31401619      29.60510314 
Ag      22.40119695      30.05483528      25.06926213 
Ag      27.22729792      27.15197987      21.76336461 
Ag      21.82100491      19.81204412      30.29989581 
Ag      18.46461637      26.39949051      27.63556242 
Ag      23.14584388      21.83452528      31.84955688 
Ag      21.57684285      23.34712826      17.97626983 
Ag      17.09203595      24.33800942      26.13306302 
Au      27.40918049      22.79311805      19.11367501 
Ag      23.91131132      17.23451708      26.33557407 
Ag      23.30366676      17.57079630      29.23778764 
Ag      25.22800949      29.74245244      25.68234599 
Ag      21.66715170      17.30992601      22.92899721 
Ag      28.74267595      18.84350700      25.69347693 
Ag      22.85120722      29.79083792      22.22008732 
Ag      25.32749487      25.34268276      23.03822456 
Ag      20.07031332      25.64606688      19.00249284 
Ag      29.59099398      27.16003801      25.28626659 
Ag      19.36578299      24.28990234      29.50685003 
Ag      18.01058487      22.23522829      27.90934954 
Au      19.98476769      28.33941753      29.23236000 
Au      23.75756819      25.91883190      31.57903269 
Ag      20.92413610      26.32741558      31.08913550 
Ag      26.43236283      18.98594909      22.19634273 
Ag      24.66562505      19.59586674      30.77654317 
Ag      20.41933016      17.81070737      28.73592661 
Ag      28.79874677      24.87647830      20.67065066 
Ag      19.55673793      30.22694196      24.53336123 
Ag      25.76301602      29.55219475      22.79474245 
Ag      24.91016625      27.12941547      18.33925277 
Ag      28.42013584      20.76796719      20.94282474 
Ag      29.04604020      27.38636717      28.15178986 
Ag      30.06368439      20.95694438      27.31778186 
Ag      18.14565505      23.89635778      20.34043900 
Ag      17.77362596      19.68930474      20.64964471 
Ag      25.63985517      27.76375366      30.41226909 
Ag      28.10224313      23.39824887      31.27127542 
Ag      21.88657463      30.17284305      28.01096935 
Au      21.73603347      24.19317247      32.82948937 
Ag      18.68432183      27.95319731      20.01994834 
Ag      16.36155485      21.99686795      21.63947933 
Ag      30.49301318      25.07676452      27.07468976 
Ag      23.41518266      23.53407543      24.30594502 
Ag      20.05072349      30.01835318      21.58325582 
Ag      16.62499726      20.09420428      26.37396394 
Ag      26.74573240      17.03759083      26.93447788 
Ag      29.91982351      25.24439405      29.92893959 
Ag      17.59529999      28.48927079      25.84100103 
Ag      16.26119049      26.38859451      24.23293306 
Ag      28.55300178      29.16417856      23.35801192 
Ag      27.79927482      26.90642365      18.89324178 
Ag      24.08579535      19.01701044      18.74325588 
Ag      27.40084388      16.83227663      23.99281872 
Ag      26.93459391      18.73538537      19.32755622 
Ag      25.93653197      21.46060516      32.53471563 
Ag      12.65925473      18.78068237      22.02506743 
Ag      23.06774627      21.05636492      16.94728360 
Ag      26.30377266      29.21528486      19.89663354 
Ag      19.95331745      19.68602849      32.45679168 
Ag      26.12596356      17.28627872      29.76246483 
Ag      29.26453879      18.71832964      22.74984724 
Ag      27.57321900      29.65482513      29.19185498 
Au      15.24578901      22.47937973      27.34488389 
Ag      25.97920182      20.80006344      17.45493487 
Au      24.52795027      23.90065007      33.44392730 
Au      23.57787132      25.10541324      16.68161925 
Ag      17.60088126      18.03645429      28.15871728 
Ag      19.09540003      30.44758156      27.39736305 
Ag      23.48000789      29.45687605      19.40463322 
Ag      22.44202248      25.60712068      22.45676669 
Ag      16.17715990      20.26344092      29.29234517 
Ag      27.47979877      19.20837662      31.42795342 
Ag      29.12656276      28.94445127      20.53250633 
Ag      16.47380004      24.52185477      28.95920657 
Ag      31.94711144      22.82153378      26.07394335 
Ag      16.70789341      21.66383092      18.83052407 
Ag      24.84683607      31.54764021      20.88841185 
Ag      21.97860759      31.76044949      20.27255877 
Ag      20.63993004      25.33331958      16.19788841 
Ag      24.32295128      31.88921414      23.90208518 
Ag      20.65319817      29.67048477      18.73729186 
Ag      23.14903187      15.08735067      21.66960662 
Ag      30.27677507      22.58962682      19.63726641 
Ag      25.03340351      22.82131431      15.62117244 
Au      18.72701429      23.62508916      17.42575815 
Ag      28.82475051      20.60182593      18.08309780 
Ag      17.54232211      22.50895999      30.85432872 
Ag      17.16677455      28.75286735      28.72096117 
Ag      27.91472148      16.73460715      21.12090971 
Ag      15.60462352      26.84530084      27.05375290 
Au      19.02916288      15.83653902      27.05949100 
Ag      19.63790978      15.55069043      24.06890598 
Ag      18.06425016      26.67531796      30.59377674 
Ag      20.21552843      15.44681312      21.26013249 
Ag      27.26431633      31.50177398      24.34786130 
Ag      24.79296135      15.21305542      28.37114259 
Ag      23.95940895      23.31878533      21.42985326 
Ag      20.16360868      21.23798168      16.38479903 
Ag      27.84163153      22.63512388      16.11754778 
Ag      31.32182445      20.43531214      21.67582402 
Ag      26.77986008      31.72298175      27.35699743 
Au      25.63671740      14.99141204      25.23805423 
Ag      28.68604507      16.23433953      28.84517694 
Ag      26.02319479      14.88624564      22.31659373 
Ag      32.58174640      22.63786535      23.24617556 
Ag      25.66186047      30.47512025      31.28548021 
Ag      22.89216392      30.87218970      30.68685208 
Ag      24.23057348      17.04662515      31.92651164 
Au      31.24304812      17.95299168      24.77267010 
Ag      17.13657900      26.02848947      18.54311506 
Ag      31.56664416      23.02237877      28.89076581 
Ag      29.35762782      16.07916083      25.96841831 
Ag      15.63441923      29.22595409      23.89923612 
Ag      16.11402924      28.94948809      21.02570845 
Ag      17.09704980      31.29600257      25.48523455 
Au      29.37205962      24.80711668      17.83649527 
Ag      30.69766321      18.09195450      27.65420237 
Au      18.58338076      17.67707493      30.90353378 
Ag      23.84114676      19.62975969      33.46157389 
Ag      18.09860397      30.71017206      19.61572934 
Ag      17.53464135      31.00356347      22.55047862 
Ag      14.18561589      27.07660453      22.41307193 
Au      32.59364839      20.03493089      26.44362604 
Ag      24.79615845      25.56780788      25.93098456 
Ag      32.80529504      26.79471117      23.15524766 
Ag      24.86826330      19.97549945      14.97340119 
Ag      20.02741445      31.01516879      30.07556861 
Ag      31.74543860      27.72986297      27.09539666 
Ag      23.77814373      28.61031237      32.51584357 
Ag      29.98162146      15.97370813      23.02946943 
Ag      22.48276901      17.11228019      34.42724951 
Ag      13.95160521      19.45356160      27.60025266 
Au      24.25038491      27.80429927      15.68331513 
Ag      15.53135284      17.52769894      30.41353241 
Ag      25.53357632      25.47881088      14.63653542 
Ag      28.67458918      30.30807180      32.07638720 
Ag      22.73788616      30.05906525      16.75116392 
Ag      22.12072983      21.88107215      34.71975055 
Ag      31.19462331      28.01413216      30.09891327 
Ag      19.78399609      15.11246523      29.81360066 
Ag      22.62187436      25.91668887      14.03911879 
Ag      16.39224304      15.05879526      28.05265495 
Ag      25.11551835      32.79615811      29.50145248 
Ag      26.54700406      14.69064518      31.04909655 
Ag      28.37693521      13.67529848      24.06219701 
Ag      16.29522459      17.26367199      19.40500351 
Ag      16.16742939      17.26419548      23.25487701 
Ag      20.81675104      15.52750764      17.84920787 
Ag      12.03033106      24.53058141      23.12310731 
Ag      14.81584117      29.97333174      26.89438158 
Ag      24.34406854      21.42224360      26.13768402 
Ag      14.97827504      19.90905855      20.32500669 
Ag      25.30883365      31.17840762      18.08501428 
Ag      27.83408508      19.75454042      15.41546622 
Au      30.09019180      26.93837414      22.41414104 
Ag      31.00393409      24.85897636      24.22611446 
Au      31.66764682      24.78935362      21.41407640 
Ag      20.52425746      23.79933602      23.76945053 
Ag      25.14913554      14.99610943      16.13151196 
Ag      30.70777754      29.77585890      25.15083572 
Ag      25.73510162      23.45354875      27.78424025 
Au      26.71936438      28.79923341      17.04095899 
Ag      20.78578949      31.34016564      33.00920738 
Ag      17.70565976      24.05778031      23.24006053 
Ag      22.99011120      19.37612803      24.52239697 
Ag      27.80305295      20.97878052      23.83836202 
Ag      19.58884907      25.88793525      21.90319986 
Ag      25.20562939      30.76842872      15.08903368 
Ag      25.24928078      19.34494653      27.93570653 
Ag      19.06202967      26.11899764      24.79957135 
Ag      20.51070384      28.16811566      26.36165683 
Ag      21.38802723      26.03658931      28.20407469 
Ag      29.13052082      23.03608518      25.48866948 
Ag      19.19702690      21.77062492      22.17395230 
Ag      24.56113820      17.07772171      23.48514607 
Ag      22.82997192      28.12762930      29.85156316 
Ag      20.69041237      19.51741436      21.11612556 
Ag      20.35241238      22.24256834      31.25396606 
Ag      24.76778914      29.95896283      28.62776892 
Ag      18.10598559      28.24399214      22.91814873 
Ag      28.13920415      19.02555300      28.57561831 
Ag      19.00407500      20.20932098      29.72854813 
Ag      29.75818216      22.75801192      22.59880848 
Ag      19.63768108      21.54263044      19.24526938 
Ag      18.20305207      17.87405618      25.23777485 
Ag      15.74365169      22.22427904      24.48878617 
Ag      16.69759828      26.16245799      21.35891357 
Ag      26.46843012      24.88457342      17.29450148 
Ag      28.07402914      29.41446007      26.25120304 
Ag      17.19638501      19.92954162      23.49757177 
Au      18.86244316      17.70413272      22.41471965 
Ag      30.69111627      20.75002481      24.44094977 
Ag      22.11465866      27.41206654      17.72528775 
Ag      21.15932438      19.33125480      18.27046745 
Ag      22.17753564      17.23923898      19.98925292 
Ag      21.94702625      15.57702709      27.60981543 
Ag      18.95572530      24.52420153      32.35782410 
Ag      26.48252994      25.67262023      32.37062044 
Ag      14.89939168      24.26590115      22.64700565 
Ag      29.61011847      20.87793940      30.17343865 
Au      23.78900943      31.93970160      26.73414478 
Ag      22.56225587      15.21640572      24.74840906 
Ag      25.01385364      16.98946028      20.58954018 
Ag      28.43649646      27.60471636      31.02730735 
Ag      19.31524591      17.50578372      19.54988307 
Ag      27.70977213      31.22503925      21.52003943 
Ag      15.32352513      24.06912484      19.83268000 
Ag      21.36994530      17.21283520      31.46601151 
Ag      21.25149378      32.12368018      23.11867054 
Au      14.24961237      24.62977023      25.31942262 
Ag      22.21486052      23.08402887      15.04916701 
Ag      30.62766755      26.76994803      19.44087192 
Ag      18.33835539      19.46482390      17.75596915 
Ag      22.88171068      18.23960495      16.29626825 
Ag      15.54119787      17.44253915      26.11464468 
Ag      30.23308194      29.98750709      28.02787439 
Ag      29.83489258      18.38875388      19.78454441 
Ag      13.72818182      21.59085420      22.53771375 
Ag      30.32832179      17.69231475      30.82157054 
Ag      26.71524566      15.91469793      18.63398288 
Ag      20.85540248      32.30632437      26.20466221 
Ag      19.24759523      27.83096702      17.04422269 
Ag      25.82272565      17.93695195      16.75439001 
Ag      14.52683835      19.52637007      24.42820248 
Ag      19.12884433      33.20972555      20.84898072 
Ag      23.90845302      22.27384517      12.79408450 
Ag      34.55510912      22.68812317      27.40650971 
Ag      28.87296838      32.49153712      29.33608802 
Ag      19.39673106      31.06696449      16.49678842 
Ag      23.74044900      15.18909612      18.83692492 
Ag      14.02629708      27.16161002      19.46516749 
Ag      20.71287542      26.75729986      34.12037294 
Ag      19.62274579      28.70510312      31.99571871 
S      20.60761926      15.94046578      33.51098852 
S      28.45388884      32.93057797      19.87793928 
S      24.19245975      22.82911071      35.62881742 
S      24.27320240      18.30280794      35.50777639 
S      12.49165526      18.05502230      24.30905555 
S      32.27223608      17.34244566      29.42351602 
S      31.39712258      14.80261898      21.36026815 
S      29.56231626      18.56278459      16.85028037 
S      28.30646700      21.82014016      33.20883775 
S      22.83719510      27.80039438      34.66537062 
S      13.50207587      30.03932713      24.85493810 
S      16.33409134      18.13722037      17.13515128 
S      32.71315123      23.16576016      19.91375750 
S      26.71285213      30.32562165      33.52133975 
S      22.92420866      32.38384540      32.69430116 
S      17.26467682      31.63538533      17.46901006 
S      11.35951389      22.22232913      22.81872183 
S      25.07316161      13.23015888      26.84343951 
S      33.72390628      29.23051477      27.50705382 
S      28.77212333      26.24976596      33.13269187 
S      23.41447885      24.55518680      12.10688298 
S      27.40103460      25.29616848      13.07232951 
S      19.26463862      33.35185981      30.20958840 
S      28.78640075      17.50764686      32.67665818 
S      21.18437655      34.15383042      24.55962837 
S      30.82166553      32.38369741      27.89333337 
S      28.99887985      29.55093830      16.50802576 
S      33.43481488      17.13837049      23.99449318 
S      34.85827209      21.69119512      23.48422571 
S      19.59925249      13.74158812      25.79133653 
S      20.84066641      33.68159709      19.20045705 
S      12.64955698      19.37339170      19.69463847 
S      18.63992691      30.37635363      33.51965181 
S      31.65863439      31.11457448      23.30584651 
S      35.19842876      27.31708234      23.36292151 
S      30.98192060      30.16383069      31.34235513 
S      23.15926241      13.22872133      23.32043768 
S      32.24878652      19.14087533      19.78442489 
S      28.49295441      14.52599702      17.62478603 
S      15.50814826      30.53725114      29.14793465 
S      31.71831644      21.81901911      31.08377913 
S      20.52677505      27.25638648      14.58688530 
S      16.92779283      27.10817508      16.32866011 
S      27.45906372      12.89922329      21.94384459 
S      16.76387971      33.64944229      26.19267167 
S      15.20097263      21.72708186      31.10817543 
S      21.01899779      16.70838312      15.73225593 
S      25.03540500      28.88203580      13.58189021 
S      19.99831582      22.30472454      14.13375723 
S      21.33841034      31.21658179      15.07520629 
S      23.23828897      33.81274141      28.23102989 
S      13.71024058      17.32911870      28.83319539 
S      24.22894406      33.62818460      22.10560229 
S      27.64434526      20.55136864      13.06897675 
S      16.39944203      23.08012567      16.78506118 
S      25.88352979      16.66955883      14.56869518 
S      17.42623894      14.36493116      30.13596076 
S      28.55904077      14.00360253      29.91662039 
S      27.14477797      33.31429559      30.82239886 
S      32.65383655      28.19270161      19.64926164 
S      24.89209778      14.82242982      32.79486651 
S      14.24615429      29.57548461      19.52442274 
S      13.29694102      25.83912996      27.22513398 
S      34.65627252      20.29844868      27.74357838 
S      30.27317333      23.34164372      16.07438279 
S      18.44087758      25.89508836      34.37055177 
S      35.28399667      24.95673032      27.07363584 
S      19.91023500      20.87271429      34.62653181 
S      32.33347692      25.78106147      30.25089015 
S      23.61935545      19.86886319      12.85482895 
S      17.09083334      33.40456049      22.14529167 
S      15.60883781      26.30731450      30.49191941 
S      11.76860949      26.93252429      22.94020953 
S      24.32967534      13.19452837      17.50069292 
S      13.13473175      24.94818735      19.08012940 
S      22.10392974      14.12170477      29.62438300 
S      16.74874476      17.64417362      32.52732125 
S      15.88688470      15.78492607      21.28172742 
S      15.20569755      15.00342641      25.92290811 
S      25.26136526      32.87682645      16.28147144 
S      29.78710903      13.64488144      26.04031884 
S      20.23611413      13.76940868      19.43372795 
S      27.02370524      33.59039225      25.67578134 
S      12.94014971      21.65922608      27.17235891 
C      21.16885518      14.19590951      33.38728971 
C      30.19398672      33.38484231      20.26571387 
C      23.64951370      24.19921487      36.72900766 
C      23.56596587      19.17212337      36.96473958 
C      11.04930350      18.99455390      24.95613269 
C      32.45249294      15.52078004      29.25012538 
C      31.39919039      12.98551951      21.64089586 
C      31.22247299      18.97499757      16.17530204 
C      28.22384756      22.75610908      34.78775602 
C      22.51619596      29.24856861      35.74749814 
C      13.36582800      31.82282373      24.42780088 
C      16.86999361      16.75050917      16.05050644 
C      33.31257782      24.14589437      18.48341030 
C      26.57663724      32.00459229      34.25203949 
C      22.51531195      34.08990788      32.14423963 
C      17.31541763      33.47389496      17.44660609 
C      10.64109895      22.26321492      21.12361074 
C      26.57341656      12.26847778      27.26390124 
C      34.82906547      28.43676565      28.74333594 
C      28.66366138      27.22012942      34.69273435 
C      21.86701962      24.33721378      11.13362529 
C      26.81831347      25.85396316      11.42292413 
C      17.75120286      33.31099210      31.25835068 
C      29.58492348      18.35426246      34.09894191 
C      19.62400553      35.08739081      24.32670825 
C      32.31415395      32.63248481      28.93288227 
C      28.99561140      30.56311377      14.97450856 
C      34.34268927      16.67148246      25.52138218 
C      35.64636723      21.66535521      21.82411761 
C      18.12689584      12.66848971      25.55646825 
C      21.67349560      35.22321513      19.75509633 
C      12.64647616      17.82405894      18.70577326 
C      18.69904123      29.74519318      35.24465372 
C      33.34596788      31.64539829      23.80448761 
C      35.57372818      28.74061485      22.26194502 
C      31.93337014      29.85152248      32.88935853 
C      21.67978160      12.22180682      22.91103470 
C      33.35885194      17.79360764      20.34378609 
C      28.02437543      12.77425848      17.94465364 
C      14.22190624      29.86408358      30.27482884 
C      33.06994231      20.58195174      31.04062184 
C      19.19279370      26.78793686      13.41034803 
C      15.77902836      28.53378311      16.36345635 
C      26.44017383      11.42291184      22.34750106 
C      15.17024056      33.88447154      27.08012414 
C      15.06296825      20.88357903      32.73457898 
C      21.62539902      15.51129812      14.47670291 
C      23.56407076      29.26782123      12.55375901 
C      20.12583966      21.00574482      12.84008990 
C      21.71750868      33.01237614      15.21331384 
C      23.88482717      35.28569442      27.34832215 
C      12.17327133      17.59821321      29.81660467 
C      25.71355569      34.71096343      22.15772363 
C      29.37803097      20.53602336      12.44818866 
C      16.39343366      21.95334908      15.33424953 
C      27.62275333      16.19806733      14.20385280 
C      17.49812624      12.52795327      30.03570787 
C      29.73586691      13.85787386      31.32284538 
C      27.24816942      35.15463396      30.75986852 
C      32.68938907      29.43303336      18.29204971 
C      25.95342721      15.13696701      34.26577948 
C      12.87800891      30.19236821      20.58596519 
C      12.00902050      26.99311683      26.62158821 
C      36.12583218      19.82881622      26.74458385 
C      30.70159922      24.40347085      14.63908640 
C      18.53737730      24.73001356      35.79268940 
C      36.52773809      24.73527651      25.73365611 
C      19.79179897      19.59548390      35.94211143 
C      32.65782882      25.44684256      32.02861258 
C      24.67474355      19.05869666      11.59169849 
C      15.72042008      33.48938715      20.92189446 
C      15.08903176      25.58793083      32.10252912 
C      10.72800085      27.10724694      21.43407436 
C      22.81067148      12.52261687      16.71439434 
C      13.05962507      24.78010985      17.25074757 
C      21.87559649      12.42823046      28.94560902 
C      16.72482733      15.99420036      33.32552140 
C      14.13584929      15.23506623      21.20714913 
C      13.43132628      14.68324340      26.26753036 
C      26.93788901      33.60811096      16.11833860 
C      31.50659821      13.39348711      25.43915438 
C      18.48575318      13.32048311      19.08180108 
C      28.65228250      34.43964547      25.73143653 
C      12.14682131      22.20789788      28.73315458 
H      22.21058737      14.12957754      33.05439582 
H      21.06298775      13.73132704      34.37420873 
H      20.52194369      13.68368715      32.66488712 
H      30.70748577      33.66974292      19.34116253 
H      30.16369970      34.24489081      20.94530166 
H      30.72697978      32.56371769      20.75741390 
H      24.53980404      24.75744152      37.04132083 
H      22.96149730      24.87971021      36.21586494 
H      23.16223942      23.76292229      37.60857068 
H      23.41900142      18.44343348      37.76977111 
H      24.28771062      19.93501147      37.27844754 
H      22.61581963      19.66237981      36.72953940 
H      11.13483316      19.04236296      26.04845516 
H      11.01479412      20.01134875      24.54897515 
H      10.13806077      18.45263819      24.67848142 
H      33.24657367      15.33831439      28.51621171 
H      32.75078464      15.09836700      30.21616737 
H      31.52604263      15.04644349      28.90618877 
H      30.38928491      12.60555493      21.83352105 
H      31.81597048      12.49807937      20.75236246 
H      32.04372405      12.77642494      22.50237098 
H      31.23201945      19.98539618      15.75327315 
H      31.94862131      18.91661437      16.99665831 
H      31.46846398      18.24047612      15.39998084 
H      28.02525522      22.05130979      35.60290584 
H      29.19227521      23.24614024      34.93975704 
H      27.42979240      23.51098370      34.75169374 
H      21.90663071      30.00923250      35.24139193 
H      22.01006593      28.91432166      36.66019593 
H      23.48527476      29.68882180      36.01108096 
H      12.73110378      32.31854094      25.17076536 
H      14.34659399      32.31084711      24.39072762 
H      12.88845080      31.88997174      23.44288219 
H      16.88381596      17.12173304      15.01885180 
H      17.87242994      16.39503542      16.31322444 
H      16.14648974      15.93205028      16.13243327 
H      32.48131101      24.66780993      17.99449935 
H      34.05964539      24.86828776      18.82961250 
H      33.76734999      23.44111515      17.77665742 
H      26.88390587      32.76684189      33.52734543 
H      25.53011160      32.17224275      34.53177710 
H      27.21628348      32.04706884      35.14088092 
H      21.67283170      34.09652122      31.44351439 
H      22.26629626      34.68398693      33.03083997 
H      23.40112137      34.51069572      31.65320576 
H      16.44728387      33.84416435      18.00394300 
H      18.23587521      33.86242085      17.89678591 
H      17.24238624      33.80666420      16.40502527 
H      11.25677573      22.85999147      20.44157535 
H      10.57428766      21.23575477      20.74668061 
H       9.63825114      22.69993552      21.19175069 
H      27.42318658      12.90882430      27.51715317 
H      26.33132250      11.64023238      28.12972609 
H      26.83487579      11.63381914      26.40874643 
H      35.80414589      28.93495858      28.69875900 
H      34.38507684      28.57830820      29.73602884 
H      34.94950085      27.36543564      28.54898745 
H      28.38480203      26.53804209      35.50418889 
H      29.65068564      27.64848765      34.90417478 
H      27.92754279      28.02716903      34.61432568 
H      21.54957393      25.32078306      10.76816769 
H      22.07337825      23.68242360      10.27941138 
H      21.07472558      23.90354413      11.75522337 
H      25.86254781      25.39153263      11.15588397 
H      26.69488796      26.94264771      11.46856879 
H      27.58355712      25.59590662      10.68234845 
H      18.04731100      33.09461318      32.29185832 
H      17.27562647      34.29696003      31.20662122 
H      17.04913459      32.54300149      30.91531693 
H      30.51741798      17.83756888      34.35007523 
H      29.78092043      19.40783298      33.86944210 
H      28.89205311      18.29597647      34.94695109 
H      18.74912095      34.43419358      24.26236668 
H      19.49807214      35.76588979      25.17837057 
H      19.70593440      35.67067997      23.40160409 
H      32.18612753      32.17279754      29.91893757 
H      33.16334423      32.16387351      28.42152267 
H      32.48445987      33.71016964      29.03626737 
H      29.88998289      31.19677144      14.96669639 
H      29.02406108      29.87327412      14.12286291 
H      28.09707398      31.18601419      14.90025899 
H      34.05970584      15.64375640      25.77843484 
H      35.41792408      16.70947510      25.31115936 
H      34.09800271      17.33783902      26.35631875 
H      34.91882420      21.41805752      21.04365270 
H      36.05106937      22.66575221      21.63065319 
H      36.46148237      20.93344238      21.82941646 
H      17.90149870      12.16247518      26.50270428 
H      17.25221928      13.24482517      25.23786082 
H      18.38190778      11.92122089      24.79526913 
H      22.47374735      35.44013597      19.03743089 
H      20.94848592      36.04420216      19.75633558 
H      22.11226195      35.09863204      20.75141689 
H      12.95150281      18.07996779      17.68473642 
H      13.34420459      17.08031034      19.10450063 
H      11.63015249      17.41439466      18.70145027 
H      18.58376406      30.59246068      35.92983159 
H      17.86611148      29.04420074      35.37041778 
H      19.63508471      29.21864736      35.45653161 
H      33.93317633      30.80895451      24.20544246 
H      33.85874212      32.07878417      22.93842228 
H      33.23785571      32.40868039      24.58428217 
H      35.61607068      28.36606121      21.23297186 
H      34.80664787      29.51971887      22.32030837 
H      36.54620961      29.15448340      22.55152085 
H      31.58237967      28.94543563      33.39347575 
H      32.99153893      29.73693986      32.62653821 
H      31.81681513      30.71379551      33.55577519 
H      21.64392983      11.38405389      23.61757786 
H      20.76236948      12.81579120      23.00721911 
H      21.76574601      11.84457880      21.88619252 
H      33.52694953      17.11754634      19.49729750 
H      34.31356842      18.23210765      20.65855065 
H      32.93345616      17.21997525      21.17194985 
H      27.18330446      12.51150215      17.29231792 
H      28.88947291      12.14385422      17.71001223 
H      27.73271227      12.62579709      18.99068980 
H      13.25744824      30.32811569      30.04256392 
H      14.15366034      28.77380894      30.18776869 
H      14.51777523      30.12197098      31.29885541 
H      32.93884868      19.89644158      31.88655008 
H      33.07909710      20.00630321      30.11082875 
H      34.02524965      21.11007519      31.14114001 
H      19.28861392      25.73838991      13.11417122 
H      18.22435188      26.94315108      13.90329820 
H      19.27701563      27.43655736      12.53081688 
H      15.89499968      29.13866183      17.26700314 
H      15.98086358      29.16548344      15.49077428 
H      14.75044512      28.15622594      16.31301410 
H      27.08362855      10.64323884      22.76920619 
H      25.63619489      11.67504214      23.04814206 
H      25.99540899      11.06484132      21.41119470 
H      14.37305351      33.96411171      26.33206083 
H      14.95643026      33.05185657      27.75972789 
H      15.22616228      34.82085807      27.64661888 
H      14.77158359      21.63322732      33.47965692 
H      14.28834144      20.11049821      32.67175247 
H      16.00638338      20.41646547      33.03302526 
H      21.73785093      16.05173235      13.52931326 
H      22.59628620      15.08317638      14.75860905 
H      20.88657055      14.71135277      14.35400617 
H      22.75079093      29.69244212      13.15339928 
H      23.87247891      29.98564543      11.78443142 
H      23.22789415      28.33825920      12.07787153 
H      19.12772436      20.57463130      12.69948730 
H      20.46000477      21.46252336      11.90090590 
H      20.83249199      20.21944868      13.12173853 
H      22.72718267      33.18876825      14.82433536 
H      20.98545275      33.56179171      14.61074919 
H      21.66770657      33.35144371      16.25422051 
H      23.89886334      36.12426278      28.05446786 
H      24.89218780      35.10110760      26.95628298 
H      23.20108885      35.50425340      26.51804144 
H      12.06445352      16.76838555      30.52443259 
H      12.20938866      18.54580473      30.36260180 
H      11.32030745      17.60336380      29.12795714 
H      26.22923472      34.69025648      21.19177727 
H      25.36464731      35.72755403      22.37535483 
H      26.39403499      34.38225995      22.95271141 
H      30.04377908      21.09417617      13.11450679 
H      29.71343106      19.49410904      12.38549138 
H      29.39741909      20.98334447      11.44775631 
H      15.38725852      21.99710136      14.89980629 
H      17.13639429      22.30550290      14.60867509 
H      16.62162531      20.92205092      15.62825798 
H      28.16050350      15.90650129      15.11250954 
H      27.60983143      15.36238964      13.49500486 
H      28.11512701      17.06382610      13.74381241 
H      16.47633316      12.13259605      30.00454025 
H      18.04637383      12.19761498      29.14766604 
H      18.00387679      12.15288405      30.93342333 
H      30.73393669      13.66611873      30.91243337 
H      29.75575921      14.77016018      31.92991228 
H      29.43142810      13.00653386      31.94195254 
H      27.17652066      35.52076488      29.73121598 
H      26.42494584      35.56711253      31.35481749 
H      28.20413927      35.46546711      31.19683279 
H      33.03712361      28.92556709      17.38444535 
H      31.69698462      29.85795223      18.10504612 
H      33.39419145      30.22923280      18.55590246 
H      26.73842789      15.86799624      34.04113861 
H      25.32243701      15.51973171      35.07685413 
H      26.40893323      14.18654992      34.56597249 
H      12.82830969      29.66532818      21.54616022 
H      13.05585706      31.25948408      20.76497887 
H      11.93242689      30.07124608      20.04544154 
H      12.33730276      27.57094277      25.75267140 
H      11.11692638      26.41503186      26.35430469 
H      11.77211870      27.67957547      27.44406834 
H      36.08343052      20.25491773      25.73602005 
H      37.01612500      20.19726732      27.26768148 
H      36.16738954      18.73530291      26.68552065 
H      29.88022781      25.07550180      14.37106359 
H      31.59449102      24.98500574      14.89560298 
H      30.92430076      23.75034153      13.78644725 
H      19.29373275      23.95449738      35.62905533 
H      18.76973399      25.29415825      36.70261051 
H      17.55622032      24.25280712      35.90128868 
H      36.72890733      25.71299821      25.28020695 
H      37.44440970      24.33828170      26.18419973 
H      36.16683777      24.04498819      24.96296426 
H      19.92151581      20.07283558      36.91991611 
H      18.79207038      19.14870101      35.88508383 
H      20.54251996      18.80536687      35.80996253 
H      32.75503454      24.36046333      32.15316761 
H      33.59221358      25.94336131      32.31389156 
H      31.83000881      25.80754719      32.64990479 
H      25.66949453      19.51435602      11.55141817 
H      24.77292841      18.00231530      11.86857576 
H      24.17424005      19.14804914      10.62093183 
H      14.77856177      33.45718163      21.48257145 
H      15.78517817      34.44098800      20.38255354 
H      15.74859886      32.65505340      20.21126996 
H      15.55228859      26.14380771      32.92469390 
H      13.99723857      25.67229272      32.15909854 
H      15.37396035      24.53024931      32.15831689 
H      11.13822821      26.54584430      20.58732203 
H       9.72128171      26.74237880      21.66762101 
H      10.67411160      28.17154981      21.17679572 
H      22.26438116      11.95426099      17.47564080 
H      22.15869453      13.31568889      16.33408654 
H      23.10766951      11.86061375      15.89325580 
H      12.79643041      23.74076874      17.02195225 
H      12.28187413      25.44962538      16.86722497 
H      14.02442857      25.01500355      16.78793654 
H      22.82644399      12.10545270      28.50366591 
H      21.59884741      11.75958077      29.76876987 
H      21.09894811      12.41815649      28.17194804 
H      16.70192951      15.19643166      32.57495382 
H      17.63001082      15.89886489      33.93722114 
H      15.83123416      15.94710540      33.95916250 
H      13.44017915      16.08116700      21.28288045 
H      13.96289903      14.69302930      20.27063054 
H      13.96610097      14.55975133      22.05432038 
H      13.28816784      13.60075242      26.36135976 
H      13.12032233      15.18711084      27.18911113 
H      12.84299832      15.06963971      25.42715785 
H      27.72571583      32.90630420      16.41734367 
H      27.09271139      33.92516428      15.08105079 
H      26.98220929      34.47937585      16.78205881 
H      31.79145795      14.13859340      24.68717088 
H      32.17385204      13.47838810      26.30531200 
H      31.59262063      12.38671352      25.01542538 
H      18.41236716      12.94323925      18.05598813 
H      18.19963616      12.52728568      19.78276179 
H      17.81240788      14.17394175      19.21823055 
H      28.73301940      35.07463183      24.84135732 
H      28.69454820      35.06497029      26.63079971 
H      29.48286676      33.72769737      25.75512940 
H      11.99384586      23.29237675      28.66438540 
H      11.17987005      21.69849758      28.81977620 
H      12.77592042      21.97942706      29.60184211 
