699
Properties=species:S:1:pos:R:3 i=109 optimized=T E=-10866.9066902342 pbc="F F F" jobid=279_84-Ag-10_0-000001-PBE
Au      33.21114007      25.49682799      25.92046752 
Au      32.05305504      29.45401007      21.57415005 
Au      34.66238561      28.18069309      25.35601154 
Au      29.90634683      14.89783634      19.68582503 
Au      34.16132179      19.59248651      23.70957170 
Au      27.60839102      23.66349996      12.88379903 
Au      18.14030965      33.27825146      28.17047353 
Au      28.57422177      30.70153636      17.96715535 
Au      24.96073390      21.22883374      23.23663462 
Au      26.30620679      23.26086260      24.89313052 
Au      28.20972088      25.12311680      23.57875896 
Au      23.77336291      21.63965750      29.05716761 
Au      23.35057097      27.92963616      26.97080891 
Ag      26.91029824      23.06863488      21.96857881 
Au      22.36475994      19.55892749      27.42476507 
Au      27.24557326      21.17553768      26.69987448 
Au      22.02131701      21.47422323      22.71934670 
Au      20.95814226      23.55181438      20.84621397 
Au      27.65684880      25.32386134      26.57084617 
Ag      19.94949361      24.04813276      26.70815251 
Au      25.47677893      21.08220127      20.32314900 
Au      24.34236014      25.78449236      28.80824794 
Au      23.84312595      27.74462925      24.05701947 
Au      26.22354625      27.66153964      27.62510308 
Au      20.86576714      21.91189095      28.43744551 
Au      22.86113467      23.73679359      27.20423093 
Au      21.46698089      21.67856103      25.60785784 
Au      19.49287239      19.78334103      26.90578128 
Au      25.86333514      19.12289203      25.07717510 
Au      25.27434722      23.61401987      30.74596009 
Au      22.95104178      25.35311361      19.55106735 
Au      20.96659545      27.96272329      23.56078205 
Au      26.65375137      27.41545259      24.70206520 
Au      22.55172104      21.34604090      19.81115382 
Au      21.91357252      25.88311015      25.37972243 
Au      27.24527778      25.50894913      29.46216267 
Au      20.13573640      19.58735104      24.07299644 
Au      25.86960132      25.06043485      20.14936439 
Au      23.51380259      19.17204131      21.61243980 
Au      22.32222418      23.95023474      30.04976282 
Au      21.04904250      17.42669441      25.86138275 
Au      21.53083480      27.64212801      20.57123356 
Au      24.39093655      27.43610840      21.19622153 
Au      24.48165524      23.10768531      18.46093677 
Ag      28.66907230      23.18623573      28.46207167 
Au      18.59421824      21.92555759      25.12547405 
Au      26.69028707      21.29451266      29.62518685 
Au      22.40347291      30.12707026      25.12476800 
Au      27.24732432      27.17496100      21.77129409 
Ag      21.75052997      19.73720294      30.27506273 
Au      18.49828174      26.39421530      27.72960935 
Au      23.11355024      21.72742417      31.96447368 
Au      21.52686190      23.38490743      17.89893847 
Au      17.04004356      24.26121530      26.21387345 
Au      27.46271247      22.81474455      19.02095615 
Au      23.90026974      17.15598824      26.34103934 
Au      23.24132463      17.42111734      29.27221479 
Au      25.22406464      29.83402775      25.74728036 
Au      21.66040173      17.18812438      22.89572341 
Au      28.81343314      18.79913153      25.66423864 
Au      22.86701601      29.81986411      22.20347743 
Au      25.32726442      25.34798194      23.04154703 
Ag      20.01625702      25.61817237      18.96007654 
Au      29.53674464      27.20207593      25.34517901 
Au      19.36407671      24.31354594      29.59126778 
Au      17.94673056      22.14759393      27.96672151 
Au      19.99993711      28.41044213      29.40160383 
Au      23.75097603      25.90193019      31.66450363 
Au      20.95605744      26.39795914      31.21607045 
Au      26.40381224      18.99683775      22.09336757 
Au      24.58337359      19.46222154      30.90087153 
Au      20.33914806      17.61237259      28.77585773 
Au      28.89990317      24.85054916      20.71425631 
Au      19.54680239      30.26241545      24.62007997 
Au      25.72750324      29.61406045      22.76810241 
Au      24.92921129      27.09778019      18.20370657 
Au      28.45645251      20.82439479      20.83102573 
Au      29.17221603      27.50424325      28.30180601 
Au      30.09023330      20.92669890      27.25423477 
Au      18.08912674      23.81993529      20.34941772 
Au      17.66735159      19.57513515      20.71249575 
Ag      25.74378704      27.74396154      30.54794979 
Au      28.17273147      23.47848949      31.30998204 
Au      21.93561679      30.28512603      28.11088058 
Au      21.76272130      24.17089699      32.93408027 
Au      18.63678110      27.95473125      20.08038472 
Au      16.15812764      21.82657506      21.71374828 
Au      30.55433782      25.17639745      27.16642219 
Au      23.40370929      23.51516858      24.32297585 
Au      20.03044643      30.01119992      21.64305315 
Au      16.52006932      19.98053471      26.45547016 
Au      26.73631853      17.02434439      26.92878974 
Au      29.99592795      25.31757129      30.07514739 
Au      17.59674967      28.46951930      25.90057435 
Au      16.19192129      26.33257552      24.31149254 
Au      28.53844049      29.20106199      23.34037001 
Au      27.81850251      26.91392089      18.94499744 
Au      24.11372997      19.08532858      18.64678302 
Au      27.38369839      16.86160083      23.95890114 
Au      26.97056995      18.78500820      19.15807359 
Au      25.91858962      21.35053853      32.61883669 
Au      12.43485112      18.81560631      22.03473577 
Au      22.99960841      21.10022279      16.88042732 
Au      26.32638421      29.19713167      19.73964689 
Au      19.85048553      19.65184914      32.42247209 
Ag      26.12564640      17.17583877      29.82596194 
Au      29.28210609      18.73288991      22.69825182 
Au      27.66496839      29.75796098      29.30369738 
Ag      15.11245518      22.35195447      27.46092580 
Au      26.08652481      20.83541528      17.23540114 
Au      24.53527817      23.83516119      33.54709611 
Au      23.54145679      25.14084622      16.45372729 
Au      17.49981594      17.88725524      28.21257786 
Au      19.09797225      30.49156660      27.56842542 
Au      23.51090956      29.47806614      19.23230615 
Au      22.41670990      25.61433665      22.46160525 
Au      16.04962833      20.04458082      29.32760089 
Au      27.47853178      19.19232417      31.36286869 
Ag      29.16544813      29.00063929      20.48775624 
Au      16.48600577      24.41703082      29.01709609 
Au      31.99169776      22.88032826      26.06642961 
Au      16.56723307      21.59487592      18.82392729 
Au      24.88641303      31.57697021      20.65772013 
Au      21.97268436      31.73620237      20.28426204 
Au      20.65276312      25.35029837      16.06590315 
Au      24.32876387      31.95891155      23.94148081 
Au      20.61274224      29.71616312      18.70452982 
Au      23.17126566      14.93333983      21.57007199 
Ag      30.39233774      22.58950951      19.53038757 
Au      25.03209594      22.87906239      15.48361699 
Au      18.72931090      23.60975144      17.27671166 
Au      28.91039853      20.63248323      17.90472772 
Au      17.61073935      22.45605056      31.00544714 
Au      17.17565000      28.73941523      28.79334391 
Au      27.91744208      16.71604244      21.01352739 
Au      15.62475089      26.86399549      27.12652908 
Au      18.82921563      15.62145259      27.24365714 
Au      19.65591882      15.36567639      23.97617535 
Au      18.05132441      26.74117447      30.80043665 
Au      20.22847336      15.31959961      21.20276763 
Au      27.29002274      31.60412550      24.22663840 
Au      24.84554067      15.19630300      28.30759359 
Au      23.94259128      23.31465173      21.42687322 
Ag      20.10362330      21.14705114      16.35724672 
Au      27.82446903      22.78813583      15.82440200 
Au      31.39907217      20.47865935      21.65618937 
Au      26.89401995      31.83665967      27.55418230 
Au      25.84644300      14.86341609      25.19044112 
Au      28.72794646      16.27958753      28.86900739 
Au      26.04090687      14.88816630      22.25623484 
Au      32.59184679      22.63239644      23.24337499 
Au      25.71988018      30.45848273      31.36856974 
Au      22.95143694      30.92556493      30.76318594 
Au      24.21238200      16.91056951      31.95225915 
Au      31.32142536      17.88567536      24.71659922 
Au      16.99177239      26.01494516      18.64180197 
Au      31.58668119      22.99818087      28.80950808 
Au      29.38752702      16.04421810      25.98639870 
Au      15.49669294      29.22348036      23.94715429 
Au      16.02622127      29.00308499      21.04799888 
Au      16.99639944      31.19422705      25.61263448 
Au      29.44187667      24.87835994      17.85570488 
Ag      30.78980280      18.07528162      27.65236564 
Ag      18.53006067      17.47512262      30.94463660 
Ag      23.86911050      19.58951924      33.66614505 
Au      18.07863931      30.77766451      19.75853583 
Au      17.43513108      31.06513046      22.64570212 
Au      14.18108629      27.05764766      22.36339498 
Au      32.63162264      20.00304703      26.27673760 
Au      24.78983282      25.57407545      25.94421240 
Au      32.94824299      26.72721024      23.10247282 
Au      24.76284324      20.01008047      14.88882957 
Ag      20.09529695      31.09730810      30.24779874 
Au      31.80640993      27.80141753      27.05850617 
Au      23.60137878      28.59705305      32.52166085 
Au      29.87431886      15.89915385      23.05611086 
Ag      22.43262169      16.99606097      34.40495923 
Au      13.25702327      19.54845362      28.49011183 
Au      24.08960234      27.85369397      15.54834490 
Au      15.23830085      17.46097980      30.85905806 
Ag      25.61784289      25.59473175      14.58337034 
Au      28.88764816      30.62025968      32.54172828 
Au      22.61842503      30.16088514      16.67371912 
Au      21.98080539      21.69988388      34.91276946 
Au      31.50757569      28.29778562      31.34986616 
Au      19.27876803      13.90182428      29.61979046 
Au      22.34831457      25.32858318      12.97567962 
Au      16.00854573      14.73452275      28.14822113 
Au      25.66956150      33.85447256      29.33617191 
Au      26.63137707      14.52346009      31.10551696 
Au      28.53588436      13.34678882      24.06175996 
Au      16.19245093      17.00377530      19.39836110 
Au      16.10321558      17.29767041      23.14609570 
Au      20.74176877      15.37386811      17.63581735 
Au      11.78387921      24.63764850      23.07386285 
Au      14.54465671      30.19839859      27.11217094 
Au      24.34421301      21.37964490      26.14052960 
Au      14.94347651      19.71313089      20.17509043 
Ag      25.44410521      31.10780810      17.86587337 
Au      28.79882560      20.46717880      14.29622708 
Ag      30.19448920      27.05434734      22.44784764 
Au      31.06151777      24.95251640      24.17250368 
Ag      31.83748507      24.75489569      21.36216344 
Au      20.49983187      23.79289937      23.81317194 
Ag      25.26410563      14.90424243      16.11882568 
Au      30.71567996      29.77324764      25.05643851 
Au      25.77711399      23.43116933      27.84466125 
Ag      26.96983666      27.66622004      16.32391712 
Au      20.72331214      31.48236137      33.17772554 
Au      17.65244703      23.96888161      23.29573780 
Au      22.99658967      19.28544506      24.49085564 
Ag      27.80590946      20.97379892      23.79407122 
Au      19.56144292      25.89357494      21.92539599 
Au      24.96576684      31.02566660      14.84354008 
Au      25.19472833      19.28908640      27.98880175 
Au      19.04204891      26.11413745      24.85064629 
Ag      20.51836447      28.20476113      26.47250783 
Au      21.39706765      26.06095514      28.26356684 
Au      29.13500246      23.09934302      25.49194046 
Au      19.12308825      21.69498508      22.19555894 
Au      24.53674294      17.01059160      23.44016706 
Au      22.94440237      28.17048702      29.83657894 
Au      20.65759006      19.45443407      21.13835548 
Au      20.38209603      22.22129700      31.32324634 
Au      24.85224297      30.09958856      28.72409565 
Au      18.00836603      28.30088048      22.97151407 
Au      28.13997596      19.00698357      28.52222794 
Au      18.92327792      20.08401823      29.78713908 
Au      29.79335098      22.80078841      22.53135187 
Au      19.54489933      21.53960798      19.20675449 
Ag      18.23500516      17.62858402      25.26673640 
Au      15.69139154      22.11233318      24.61117889 
Au      16.66407528      26.12365233      21.42922389 
Au      26.51075545      24.89112407      17.22116965 
Au      28.04375460      29.53247485      26.25750939 
Au      17.22027316      19.80868553      23.63300425 
Au      18.83270732      17.56471187      22.39299399 
Au      30.66994915      20.75290573      24.38428301 
Au      22.10086636      27.41591142      17.62297119 
Au      21.12623457      19.30200994      18.27890011 
Au      22.21358977      17.13629836      19.84734523 
Au      21.88464790      15.37405393      27.66484682 
Ag      18.98906675      24.51913059      32.46816356 
Au      26.44720174      25.62561831      32.49639767 
Au      14.77874727      24.21717953      22.75239283 
Au      29.60340248      20.79366975      30.11898418 
Au      23.84592989      32.09703709      26.78388868 
Au      22.52967554      15.12563655      24.84897151 
Au      25.01867333      16.91537128      20.42635504 
Au      28.56922110      27.84803205      31.14772300 
Au      19.30353864      17.41194382      19.51518686 
Au      27.71548645      31.22262563      21.44946950 
Au      15.28197559      23.99853718      19.92091491 
Ag      21.35082013      17.15479382      31.46819917 
Au      21.18848407      32.15406438      23.07482665 
Au      14.15436678      24.47480859      25.44763754 
Au      22.28118923      23.01500856      14.84390587 
Au      30.65443782      26.79273682      19.53621329 
Au      18.28350080      19.41269332      17.77949162 
Au      22.79645080      18.26317984      16.23655310 
Au      15.51929109      17.40942067      26.05399859 
Au      30.26896772      30.07138913      27.99089267 
Au      29.78766037      18.37779933      19.77405631 
Au      13.53786086      21.63214146      22.72280342 
Au      30.50030253      17.51526143      30.96245132 
Au      26.80287698      15.95084808      18.47135550 
Au      20.77445051      32.32596344      26.34514530 
Au      19.26792127      27.82006635      17.17189706 
Au      25.82013871      17.96739497      16.61049390 
Ag      14.45150926      19.47422347      24.40798830 
Au      19.07975112      33.46688053      20.77893382 
Au      23.97218054      22.07853912      12.38266376 
Au      34.65474221      22.59597258      27.42022439 
Au      29.24856802      32.94018801      29.33987323 
Au      19.25516121      31.25274309      16.49834359 
Au      23.64784258      14.96746807      18.78524313 
Au      13.74839698      27.02226983      19.35951092 
Au      20.97186467      26.74753682      34.44939224 
Au      19.58981499      28.58160961      32.28093710 
S      20.53859563      15.86770489      33.44151113 
S      28.55538922      32.49060542      19.53030389 
S      23.94063658      22.80695590      35.69025866 
S      24.21460433      18.09063648      35.59849637 
S      12.30706999      18.15276044      24.28261150 
S      32.34067566      17.38984631      29.49610773 
S      31.44510366      14.90209376      21.47281308 
S      29.94306159      19.39278716      16.04958202 
S      28.19787046      21.98721515      33.27346511 
S      23.06181008      27.86093810      34.77199314 
S      13.45574913      30.03808733      25.02669080 
S      16.39048472      17.94150215      17.21496038 
S      32.81282115      23.21493040      19.66770723 
S      26.75555530      30.78671501      33.53747662 
S      22.76802658      32.50565524      32.64012759 
S      17.18507614      31.50304797      17.60371154 
S      11.22815122      22.34719430      22.98155125 
S      25.08506390      13.23847843      26.83902005 
S      33.88820328      29.07887074      27.38853702 
S      28.51091342      26.59864966      33.29642357 
S      24.09123436      24.34265186      11.71527164 
S      27.58575131      26.00940581      13.12727453 
S      19.09316875      33.38100905      30.31636895 
S      28.80174234      17.55255620      32.61317120 
S      21.28915877      34.00995493      24.65735289 
S      31.08860816      32.35300677      27.98664666 
S      28.93101280      29.18799665      16.17986298 
S      33.56034538      17.31658524      23.87507910 
S      34.90217010      21.82307892      23.47134121 
S      19.16037776      13.71375192      25.67384801 
S      20.86505447      33.66616654      19.24221068 
S      12.58629738      19.40127915      19.75048250 
S      18.71353730      30.36256350      33.67586353 
S      31.78828613      31.06625154      23.30428411 
S      35.32293867      27.31059098      23.26191079 
S      31.13895985      30.58242158      31.83104921 
S      23.09890824      13.26485766      23.36064426 
S      32.07517125      19.22555480      19.67229264 
S      28.61647812      14.50065087      17.74897593 
S      15.44514866      30.40992142      29.28495654 
S      31.57001370      21.94258141      31.00999660 
S      20.51546123      26.49147088      13.89309611 
S      17.15947327      26.89434148      16.37190053 
S      27.41080722      12.86040978      22.03879012 
S      16.88093462      33.56088946      26.18925270 
S      15.33187230      21.61248083      31.13598931 
S      21.13080334      16.61234483      15.63321804 
S      24.69989211      29.09073476      13.52073821 
S      20.09654196      22.13949239      14.07867943 
S      21.15791101      31.32820159      15.10804362 
S      23.69532080      34.16010706      28.09426810 
S      13.45619479      17.33641051      29.30834922 
S      24.41203083      33.54108455      22.06045174 
S      27.77789109      21.36285471      12.36004182 
S      16.41631026      22.94789741      16.78284192 
S      26.09121779      16.59005042      14.60328024 
S      16.99463738      14.08327900      30.19574459 
S      28.54921460      14.03450834      29.82402379 
S      27.56934414      33.82573683      30.74181931 
S      32.65102435      28.18959154      19.65429905 
S      24.91277092      14.71209772      32.71359794 
S      14.30023806      29.31555363      19.33993289 
S      13.43442589      25.80246801      27.35740046 
S      34.52172462      20.27044639      27.79583321 
S      30.21597275      23.55356993      15.99081135 
S      18.83007996      25.73291344      34.65045765 
S      35.23473799      24.86091110      27.12842105 
S      19.88758259      20.59498058      34.67480435 
S      32.15449038      26.06440036      30.98711949 
S      23.79902820      19.74527905      12.68272630 
S      17.24911662      33.47516701      22.26623925 
S      15.70157919      26.08040386      30.65826748 
S      11.84497087      26.99854225      23.07450919 
S      24.36611536      13.09644835      17.44681758 
S      13.05087956      24.76773356      19.23027887 
S      21.56600515      13.50792691      29.23189355 
S      16.74979893      17.47667734      32.66435677 
S      15.74486396      15.69861249      21.34507597 
S      14.84098231      15.07984934      26.12850099 
S      25.31446339      32.93778001      16.17167569 
S      29.74436459      13.61487685      26.07437995 
S      20.11649656      13.78174067      19.29681076 
S      27.25269264      33.50030606      25.73521021 
S      12.71222102      21.68525972      27.68201003 
C      21.08085497      14.12691716      33.21057518 
C      30.32440358      32.86393674      19.85420462 
C      23.31104082      24.17086789      36.74595167 
C      23.48847814      18.87587406      37.09406539 
C      10.95707043      19.13696547      25.04041092 
C      32.64845844      15.59646495      29.24843139 
C      31.64926024      13.11184777      21.82414148 
C      31.64946069      20.05022921      15.92051164 
C      28.03616545      23.00560647      34.78549151 
C      22.68166858      29.35795098      35.76000333 
C      13.25921148      31.76317140      24.43250902 
C      17.06013366      16.58951498      16.17021036 
C      33.29780825      24.25259478      18.23459531 
C      26.51137599      32.53734472      34.01905750 
C      22.38109662      34.16800018      31.97155149 
C      16.94931703      33.32376084      17.59280413 
C      10.45869523      22.19300684      21.32157326 
C      26.50234553      12.20668506      27.36157751 
C      34.82667821      28.25357561      28.72892041 
C      28.07205686      27.67724125      34.70961125 
C      23.40025457      24.34654622      10.00914029 
C      26.98071434      26.67719820      11.53013457 
C      17.61700797      33.25690099      31.40367605 
C      29.51377702      18.47370917      34.03149229 
C      19.82867404      35.09143216      24.43822915 
C      32.59485355      32.43723717      29.02568398 
C      28.78555681      30.18532265      14.64588881 
C      34.47075508      16.65163732      25.32248256 
C      35.65710002      21.91122028      21.80188441 
C      17.56686294      12.94137501      25.20677531 
C      21.80498003      35.14862897      19.77612897 
C      12.39339313      17.86271230      18.76829140 
C      18.81245147      29.78303547      35.41416176 
C      33.48819599      31.48008881      23.85196793 
C      35.70568016      28.73541445      22.17364526 
C      32.09670427      30.84080116      33.37962583 
C      21.60374006      12.25976030      23.03834711 
C      33.22343689      17.89257960      20.17533187 
C      28.05748167      12.77180618      18.01656123 
C      14.22648450      29.60135104      30.39283609 
C      32.95377596      20.74829792      31.10558130 
C      19.06101984      25.71143666      13.09413738 
C      15.96362823      28.26694166      16.18404406 
C      26.31135663      11.44259753      22.42211912 
C      15.21818330      33.98001209      26.84621465 
C      15.18085259      20.73155059      32.73381374 
C      21.89857767      15.43828361      14.45439688 
C      23.15704597      29.32354258      12.55856389 
C      20.35877313      20.77426604      12.88442158 
C      21.62926732      33.10036883      15.19653070 
C      24.13854539      35.47454339      26.89415713 
C      11.97034106      17.16921761      30.38048337 
C      25.96178981      34.51011480      22.15379178 
C      29.12720424      21.28853406      11.11238025 
C      16.44091470      21.75022768      15.39828448 
C      27.88913493      16.27456801      14.41464791 
C      16.48003075      12.33050552      30.40972672 
C      29.82638266      13.78199663      31.11827875 
C      28.00844187      35.60698738      30.87677431 
C      32.54051093      29.35722935      18.24009727 
C      25.87775390      14.97718263      34.25474317 
C      12.92823831      30.16888141      20.20960745 
C      12.13705217      26.96297869      26.79129118 
C      36.06076844      19.65177958      27.00916955 
C      30.66391361      24.74052971      14.66972759 
C      19.00338155      24.49775042      35.99874645 
C      36.56586911      24.76380033      25.86803955 
C      19.86239250      19.24678362      35.91367951 
C      32.17119599      25.35764311      32.67977862 
C      25.06244932      18.95681586      11.61542970 
C      15.75738201      33.67359048      21.21613580 
C      15.31972668      25.25592528      32.24670640 
C      10.72956532      27.41698519      21.67726440 
C      22.88768608      12.40146365      16.60928628 
C      12.91755174      24.40093687      17.43729940 
C      21.58043434      12.02847927      28.14859422 
C      16.66864630      15.81688344      33.43870240 
C      13.95035976      15.32875156      21.29975732 
C      13.05218068      15.02574384      26.51565877 
C      27.01177560      33.53204187      15.79931296 
C      31.50579841      13.36374820      25.62630938 
C      18.33362964      13.45748735      19.00495713 
C      28.95977693      34.15928645      25.77209248 
C      12.14204030      22.58644018      29.17618061 
H      22.12893755      14.06554774      32.89857151 
H      20.94761021      13.59703734      34.16068959 
H      20.44642538      13.67293625      32.43813048 
H      30.77023649      33.25511893      18.93272376 
H      30.35840067      33.62936625      20.63859317 
H      30.86969231      31.97595941      20.19437645 
H      24.17160215      24.78556511      37.03546074 
H      22.58655053      24.79330416      36.20789632 
H      22.84956267      23.73263010      37.63814217 
H      23.09724516      18.09948752      37.76030551 
H      24.29435157      19.42155800      37.59922687 
H      22.69517030      19.58559870      36.83328545 
H      11.10506534      19.10716293      26.12759690 
H      10.97786073      20.17787898      24.70072133 
H       9.99809508      18.67660127      24.77751483 
H      33.45513871      15.50656809      28.51059663 
H      32.96994270      15.14747586      30.19472487 
H      31.75317225      15.08916819      28.87347886 
H      30.69122828      12.64368272      22.07650545 
H      32.08331849      12.63587746      20.93765456 
H      32.34315593      13.01586403      22.66738364 
H      31.64105547      21.14284812      15.83877986 
H      32.17945177      19.74947192      16.83319762 
H      32.12489141      19.60248732      15.04055491 
H      27.80975040      22.33837461      35.62524142 
H      28.99317287      23.51433964      34.95189938 
H      27.23722149      23.74963784      34.67228111 
H      21.98272364      30.02185311      35.23362804 
H      22.26204419      29.04862836      36.72425718 
H      23.62856701      29.88713056      35.92249990 
H      12.56859944      32.29032683      25.10049152 
H      14.22501815      32.27780230      24.39920617 
H      12.83165428      31.71355972      23.42380680 
H      17.27298124      17.01225240      15.18106713 
H      17.98345730      16.17530946      16.59198844 
H      16.29698921      15.80776433      16.08348986 
H      32.46717387      24.89223958      17.91165372 
H      34.15313323      24.87554145      18.51953154 
H      33.58285980      23.58585690      17.41204599 
H      26.85485215      33.21280910      33.22889460 
H      25.43767188      32.68050468      34.19269801 
H      27.07164968      32.71479983      34.94432745 
H      21.50991022      34.14214589      31.30820100 
H      22.18737357      34.83511589      32.81955114 
H      23.26446880      34.50811383      31.41611475 
H      16.00842807      33.54051396      18.11196497 
H      17.77723319      33.83513444      18.09665167 
H      16.87611906      33.65458005      16.55068699 
H      11.06975867      22.68240610      20.55631734 
H      10.36735687      21.12345278      21.09618584 
H       9.46669877      22.65701865      21.36445502 
H      27.38339442      12.80770651      27.60231720 
H      26.19554071      11.63970303      28.24872922 
H      26.74115596      11.51974953      26.54044259 
H      35.81573326      28.72252472      28.78817255 
H      34.27349474      28.41728034      29.66280670 
H      34.93128137      27.17933028      28.54314352 
H      28.04712189      27.04696371      35.60693179 
H      28.84446320      28.44908838      34.81387482 
H      27.09922516      28.15589231      34.56549080 
H      23.32249208      25.38807246       9.67669127 
H      24.09949365      23.80104604       9.36509936 
H      22.41604661      23.87090211       9.97815316 
H      26.12382373      26.09942686      11.16845696 
H      26.67553810      27.71598903      11.70532576 
H      27.79816597      26.64050167      10.80144341 
H      17.97397112      33.10030658      32.42882294 
H      17.05712812      34.19653698      31.34203558 
H      16.97518492      32.42090201      31.10680668 
H      30.34063578      17.88826142      34.44863177 
H      29.85986726      19.46632481      33.72587049 
H      28.71772222      18.58197123      34.77832207 
H      18.89420655      34.52386862      24.42028915 
H      19.80906098      35.79808764      25.27669931 
H      19.94809628      35.63354923      23.49233566 
H      32.41331793      32.01180386      30.01792548 
H      33.37611440      31.86622837      28.50889115 
H      32.88765202      33.49033836      29.10891552 
H      29.56338863      30.95690045      14.63628756 
H      28.94196757      29.49753516      13.80555163 
H      27.79209641      30.64414571      14.55548552 
H      34.14766578      15.61267217      25.46007374 
H      35.54500099      16.67801430      25.10746832 
H      34.24796858      17.22905818      26.22575719 
H      34.94304499      21.61819663      21.02526241 
H      35.95247615      22.95483381      21.63886712 
H      36.54160869      21.26508785      21.78336629 
H      17.09847405      12.53387876      26.11099693 
H      16.88879445      13.66354728      24.74308061 
H      17.78786340      12.13163585      24.50078938 
H      22.69706619      35.20996664      19.14082980 
H      21.17859241      36.03484313      19.62561850 
H      22.11323295      35.06688347      20.82349586 
H      12.60906368      18.11742969      17.72380623 
H      13.08989419      17.08538206      19.09771636 
H      11.35846467      17.51521561      18.86301172 
H      18.74873554      30.65416466      36.07560415 
H      17.95616367      29.11868126      35.58029187 
H      19.73513962      29.22339061      35.59943825 
H      34.02608675      30.58944687      24.20538649 
H      34.02559536      31.94708117      23.01856120 
H      33.39347565      32.19607856      24.67746421 
H      35.84672027      28.34011272      21.16070955 
H      34.88679312      29.46316272      22.16121948 
H      36.63085343      29.20534737      22.52588234 
H      31.81752978      30.11503693      34.14841954 
H      33.16129868      30.73763561      33.13979870 
H      31.89280800      31.85723190      33.73522718 
H      21.38882581      11.67631179      23.94145620 
H      20.74454247      12.89898114      22.79822008 
H      21.81913939      11.59150228      22.19645418 
H      33.33612797      17.20712321      19.32681947 
H      34.18890682      18.35296177      20.41854335 
H      32.85398419      17.33806176      21.04203709 
H      27.27456677      12.55033004      17.28143166 
H      28.91970876      12.11358186      17.85962653 
H      27.66387945      12.63908206      19.02960456 
H      13.30286321      30.19071308      30.38699593 
H      14.02859834      28.57066960      30.08166075 
H      14.65995476      29.59717193      31.40030517 
H      32.77571441      20.09642975      31.96953325 
H      33.03569095      20.13972843      30.20089476 
H      33.88159531      21.31526343      31.24768436 
H      19.14194654      24.61796921      13.11555726 
H      18.17675730      26.03094285      13.66021439 
H      18.99852545      26.07191117      12.06107446 
H      16.00334359      28.96395097      17.02565883 
H      16.20760279      28.80089111      15.25782457 
H      14.95855596      27.83312067      16.11516032 
H      26.93240035      10.56479111      22.63245758 
H      25.65825114      11.66575152      23.27191289 
H      25.69704517      11.26080232      21.53179923 
H      14.54487648      34.11408063      25.99151403 
H      14.83612460      33.18673026      27.49832035 
H      15.29620075      34.92196663      27.40078699 
H      14.91619858      21.47425832      33.49632821 
H      14.38419683      19.98289923      32.64657711 
H      16.11446802      20.23230172      33.00914802 
H      22.11083150      15.99402690      13.53327688 
H      22.83554130      15.02210486      14.84848956 
H      21.18619037      14.63209219      14.24428399 
H      22.36178366      29.75625242      13.17509581 
H      23.38328964      29.98725712      11.71596064 
H      22.84718847      28.33622389      12.19206537 
H      19.36957584      20.39511446      12.59947840 
H      20.87648845      21.16099603      11.99869542 
H      20.94938216      19.96309512      13.32086157 
H      22.62853006      33.20351431      14.75613124 
H      20.89767779      33.67346539      14.61554072 
H      21.64315991      33.45144059      16.23344789 
H      24.18835922      36.42860850      27.43099676 
H      25.09737489      35.25640807      26.41070002 
H      23.34000878      35.50317032      26.14186507 
H      12.02688080      16.19819750      30.88558732 
H      11.92041499      17.97116325      31.12233038 
H      11.08328360      17.20216430      29.73734395 
H      26.12892516      34.98561425      21.18040693 
H      25.83496140      35.27298547      22.93131229 
H      26.81242244      33.86414401      22.40652096 
H      30.03555725      21.77747010      11.47519959 
H      29.33271780      20.23329655      10.89860423 
H      28.77278095      21.78905853      10.20407226 
H      15.45461166      21.27549517      15.33931617 
H      16.65294169      22.30514780      14.47681007 
H      17.21202572      20.98464599      15.55265427 
H      28.33243829      15.89266639      15.34026038 
H      28.01363610      15.53579637      13.61395310 
H      28.37495390      17.21715679      14.13342906 
H      15.39642043      12.31767853      30.57368484 
H      16.73023673      11.73047568      29.53049388 
H      16.99433138      11.93226362      31.29199859 
H      30.77608879      13.57930581      30.60965279 
H      29.92928867      14.66790715      31.75441178 
H      29.53960310      12.91159999      31.71907437 
H      28.11765991      36.06762761      29.89106209 
H      27.21173169      36.11011290      31.43674813 
H      28.95273295      35.67916893      31.42837922 
H      32.74259953      28.78349110      17.32775030 
H      31.54603017      29.81218550      18.16522872 
H      33.30573074      30.13060564      18.37102430 
H      26.65772636      15.73050473      34.10458914 
H      25.18364192      15.31629359      35.03362682 
H      26.32784063      14.01901062      34.53838780 
H      12.77996329      29.75182707      21.21099217 
H      13.20139547      31.22819826      20.28716082 
H      12.01395200      30.06637457      19.61412028 
H      12.39037173      27.42562313      25.83347162 
H      11.20189838      26.39971632      26.68782573 
H      12.02563443      27.74160723      27.55588073 
H      36.09846916      19.91448182      25.94592710 
H      36.91490454      20.08801610      27.53922055 
H      36.07750789      18.56172102      27.12386563 
H      29.97954804      25.59355986      14.63987424 
H      31.68535758      25.08720215      14.86805780 
H      30.62588479      24.21587074      13.70713714 
H      19.79949253      23.77567022      35.78349997 
H      19.20986339      25.01995939      36.93938390 
H      18.04817362      23.96453422      36.07648193 
H      36.76800738      25.78388039      25.51885682 
H      37.45798852      24.34637678      26.34893011 
H      36.26425565      24.13365591      25.02499291 
H      19.92556986      19.68565927      36.91592389 
H      18.90747792      18.72023604      35.79774153 
H      20.68671777      18.53774338      35.75833771 
H      32.24310566      24.26781024      32.57194890 
H      33.04992171      25.74558586      33.20727478 
H      31.25448345      25.61690118      33.22111047 
H      25.99433580      19.53137790      11.61709469 
H      25.24162550      17.95094304      12.01481776 
H      24.65357463      18.89629915      10.60003868 
H      14.88323504      33.59852026      21.87420527 
H      15.78305582      34.66458368      20.74890784 
H      15.71050012      32.89249841      20.45049081 
H      15.34266497      26.00958780      33.04198671 
H      14.31638891      24.82104010      32.16325509 
H      16.04471153      24.46032056      32.46178987 
H      11.08052036      26.97088164      20.74002759 
H       9.72486823      27.05234143      21.91907518 
H      10.70902498      28.50903359      21.58350077 
H      22.38093298      11.74015300      17.32171771 
H      22.19030293      13.18783778      16.30113038 
H      23.22142670      11.82637296      15.73809137 
H      12.68616674      23.33281734      17.34413195 
H      12.10058470      24.99725481      17.01617352 
H      13.85732272      24.61286610      16.91727674 
H      22.59697232      11.93747234      27.74476307 
H      21.33460968      11.15194683      28.75866811 
H      20.86313888      12.13777443      27.32726457 
H      16.62270315      15.03061653      32.67853082 
H      17.58086609      15.69666478      34.03594082 
H      15.78360655      15.77632002      34.08342825 
H      13.34925705      16.24742050      21.33518762 
H      13.72806038      14.75846589      20.39052460 
H      13.72547598      14.71781170      22.18252867 
H      12.76442101      13.97476865      26.63431312 
H      12.83487853      15.58821923      27.42960419 
H      12.52125114      15.47329864      25.66631643 
H      27.75809213      32.74482342      15.95249087 
H      27.05046124      33.89942756      14.76823582 
H      27.21862854      34.35490207      16.49424745 
H      31.80686968      14.04691928      24.82527678 
H      32.10221189      13.56239528      26.52515786 
H      31.64723607      12.32303941      25.31333358 
H      18.22966191      12.93704073      18.04609637 
H      17.97843150      12.81348096      19.81822177 
H      17.75156447      14.38650682      18.99919216 
H      29.06644586      34.84711856      24.92445088 
H      29.10712500      34.69997376      26.71502963 
H      29.70110864      33.35847242      25.69408866 
H      12.11004649      23.65149069      28.91382833 
H      11.13940532      22.23444462      29.44238627 
H      12.83277741      22.43661796      30.01388297 
