699
Properties=species:S:1:pos:R:3 i=85 optimized=T E=-10866.909561249 pbc="F F F" jobid=279_84-Ag-10_0-000003-PBE
Au      33.19533139      25.47933762      26.03992328 
Au      32.13186805      29.45579896      21.54041168 
Au      34.61524083      28.15280271      25.44599663 
Au      29.95743480      14.87099280      19.71841012 
Au      34.09257944      19.59600599      23.75459386 
Au      27.48818516      23.40243659      12.90742586 
Au      18.12713326      33.24479743      28.18047924 
Au      28.72812295      31.09269069      18.17293675 
Au      24.96923634      21.23557047      23.22439727 
Au      26.29828018      23.26796362      24.91005840 
Au      28.23043214      25.13033760      23.61633335 
Au      23.73876376      21.65168645      29.04252244 
Au      23.39310255      27.96020730      26.97193809 
Au      26.93219068      23.07745928      21.97655380 
Au      22.33832784      19.56227469      27.36106126 
Au      27.22118703      21.16548175      26.70861279 
Au      22.03541119      21.51068627      22.71897599 
Ag      21.01534913      23.56844625      20.86106298 
Au      27.63342409      25.32783433      26.58798424 
Au      19.94888925      24.07167895      26.72503581 
Ag      25.50788888      21.08985279      20.31461382 
Au      24.30083823      25.76477978      28.81395080 
Au      23.87534491      27.77091632      24.06163021 
Au      26.21924337      27.69625523      27.60279583 
Au      20.83108551      21.93873502      28.44813802 
Au      22.84399574      23.74013822      27.20062319 
Ag      21.46290552      21.70054061      25.60414323 
Au      19.47174416      19.82785328      26.90888453 
Au      25.85585623      19.11623120      25.07664038 
Ag      25.21829611      23.61372364      30.77031193 
Au      22.99356990      25.34882263      19.53468488 
Au      20.99538036      28.00674199      23.55295683 
Au      26.67597343      27.44945277      24.73957263 
Au      22.59487285      21.38664187      19.80021082 
Au      21.93191101      25.89858774      25.37297173 
Au      27.19647227      25.52046519      29.49853839 
Au      20.13972328      19.65007714      24.06578741 
Au      25.89539560      25.05782289      20.12046842 
Au      23.53251378      19.21228778      21.60791175 
Au      22.27722628      23.93404097      30.07658197 
Au      21.03155849      17.42852463      25.84131603 
Au      21.59492312      27.65767850      20.58701917 
Au      24.44478630      27.44855689      21.21468772 
Ag      24.50815908      23.10448855      18.40368256 
Au      28.62307724      23.21053775      28.49238490 
Au      18.59470733      21.95967515      25.14049972 
Au      26.67385294      21.31417141      29.65528828 
Au      22.42761325      30.11925239      25.11894615 
Au      27.27231874      27.16985026      21.78041137 
Au      21.69045464      19.73937615      30.20380194 
Au      18.46121925      26.39860019      27.73057795 
Au      23.08803448      21.75850713      31.95135225 
Au      21.53976465      23.39474744      17.92191685 
Au      17.02078034      24.30675541      26.22938597 
Au      27.47160467      22.80710496      19.00815796 
Au      23.85585107      17.14345258      26.32478324 
Au      23.18133905      17.40791345      29.24913285 
Ag      25.26985053      29.86143998      25.74379703 
Au      21.67869972      17.20957205      22.91416201 
Au      28.76775209      18.78695236      25.67702585 
Ag      22.89226695      29.85130064      22.21374483 
Au      25.35368737      25.36589298      23.04248145 
Au      20.03295553      25.64087114      18.97830547 
Au      29.53808124      27.19692749      25.41474515 
Ag      19.31472696      24.30816999      29.62560545 
Au      17.92370879      22.18219854      27.98453673 
Au      19.98744247      28.37758582      29.40272395 
Au      23.70063303      25.88088374      31.69311242 
Au      20.90308947      26.37171447      31.23738985 
Au      26.40953675      18.97136400      22.09968282 
Au      24.56260970      19.51914089      30.88428989 
Au      20.27869195      17.56517308      28.74994039 
Au      28.90622773      24.85563097      20.68892478 
Ag      19.54404072      30.29928630      24.60128515 
Au      25.74960600      29.60829252      22.76815349 
Au      24.91708148      27.06536208      18.22845053 
Au      28.43514383      20.82350123      20.86425646 
Au      29.11404398      27.49230375      28.27831204 
Au      30.05186625      20.95692533      27.32442427 
Au      18.11056232      23.84929637      20.36617003 
Au      17.66631257      19.58723550      20.73265000 
Au      25.67170693      27.74572289      30.51721625 
Au      28.07534535      23.48479139      31.29372439 
Au      21.92571374      30.26331122      28.10570740 
Au      21.71999034      24.14285724      32.94386690 
Au      18.66764509      27.94682570      20.10325609 
Au      16.20086675      21.86373849      21.73513278 
Au      30.53777472      25.14574071      27.20395859 
Au      23.40349077      23.53902590      24.31812722 
Au      20.05429741      30.01901693      21.64839197 
Au      16.47443058      19.96901692      26.49916927 
Au      26.71351255      17.03833832      26.91689870 
Ag      30.00548155      25.31275679      30.07991487 
Au      17.58266180      28.45591711      25.88935365 
Au      16.18171379      26.34333369      24.33221037 
Au      28.55027126      29.23226046      23.38168188 
Au      27.83478637      26.89048464      18.90230904 
Au      24.15224014      19.13077953      18.67001192 
Au      27.38711878      16.79090365      23.92048523 
Au      26.99945727      18.77436893      19.20512387 
Au      25.90657958      21.41870666      32.66301860 
Au      12.41541471      18.81210519      21.95427761 
Au      23.00017339      21.12493249      16.87053811 
Ag      26.37063982      29.25589118      19.81545973 
Au      19.95643168      19.65928234      32.44824616 
Au      26.04387966      17.21866622      29.81004145 
Au      29.25455943      18.71134357      22.70891230 
Au      27.64931748      29.75769410      29.25519569 
Au      15.12436651      22.36506787      27.51707579 
Au      26.08048719      20.86350030      17.22401850 
Au      24.47975480      23.91041762      33.61140180 
Au      23.52083662      25.09103789      16.44905995 
Au      17.48984023      17.87800659      28.19533307 
Au      19.05839680      30.47186996      27.51579835 
Au      23.55938314      29.45177127      19.30407687 
Au      22.43982952      25.62311758      22.46016061 
Au      16.04989865      19.96926356      29.39750707 
Ag      27.40603851      19.18705678      31.45635743 
Au      29.16808944      29.01283896      20.52486332 
Au      16.42689730      24.45352570      29.02809171 
Au      31.98922559      22.85902460      26.12971578 
Au      16.57787208      21.60115124      18.84172990 
Au      24.86111859      31.66121602      20.72053417 
Au      21.98381680      31.74283930      20.24126442 
Au      20.61103838      25.41198754      16.12110187 
Au      24.24557409      31.96238360      23.93374771 
Au      20.66166533      29.69798532      18.72790608 
Au      23.16849044      14.96988256      21.59121736 
Ag      30.38764158      22.54433578      19.58987302 
Ag      25.03890989      22.83579427      15.38680367 
Au      18.68774281      23.66749232      17.34243397 
Au      28.91104436      20.61951693      17.90658889 
Au      17.51650246      22.52547220      31.05614057 
Au      17.15672150      28.69056628      28.78955697 
Ag      27.95116487      16.66726050      21.01546781 
Ag      15.54234928      26.85130170      27.15444618 
Au      18.79887182      15.60449487      27.17165957 
Au      19.70986130      15.37139806      23.97560731 
Au      18.01742363      26.71607645      30.82213234 
Au      20.24494951      15.33033969      21.21100498 
Au      27.22340529      31.58585467      24.27875052 
Au      24.84854437      15.17816363      28.30993434 
Au      23.97932851      23.32273187      21.40147613 
Ag      20.08392874      21.19838958      16.39003010 
Au      27.86070580      22.69655187      15.90004665 
Au      31.45065384      20.39544030      21.77851866 
Au      26.94517941      31.82817782      27.53483550 
Au      25.72070641      14.90852202      25.17502062 
Au      28.67978946      16.29447580      28.90684356 
Ag      26.02396452      14.82322148      22.21622312 
Au      32.57318984      22.65242084      23.28807100 
Au      25.69434556      30.50265773      31.34021667 
Au      22.90837774      30.88495603      30.78122364 
Au      24.17002318      16.96875220      31.97781552 
Au      31.29212692      17.88491014      24.74655476 
Au      16.93293005      26.05426383      18.64994213 
Au      31.55743690      22.99379240      28.89962921 
Au      29.35623839      16.00285644      25.99438225 
Au      15.49936155      29.21981659      23.95037589 
Au      16.05304047      28.98944482      21.04183312 
Au      16.96355452      31.17240777      25.59579390 
Au      29.49813904      24.84178699      17.86195932 
Au      30.70421729      18.05479495      27.63809671 
Ag      18.43227690      17.56901930      30.94832850 
Au      23.90964496      19.70985640      33.68854916 
Au      18.08885200      30.76141101      19.76086493 
Au      17.43925734      31.04820890      22.64709301 
Au      14.18388884      27.07231247      22.35991284 
Au      32.59523480      19.99555863      26.36227979 
Au      24.79074285      25.59575339      25.94355043 
Au      32.93103360      26.83743554      23.06582559 
Au      24.74582161      19.98039751      14.92133958 
Au      20.04745265      31.07626715      30.17566635 
Au      31.79627628      27.79843548      27.19807475 
Au      23.75182435      28.59574088      32.55346547 
Au      29.91140471      15.92000920      23.02006627 
Au      22.39292308      16.97028973      34.50128374 
Au      13.26779950      19.46387477      28.55318489 
Au      24.20558890      27.87319369      15.62782713 
Au      15.20006053      17.39688115      30.96133834 
Au      25.53490315      25.57065473      14.61854131 
Au      29.09976436      30.55529696      32.21032330 
Au      22.68709146      30.10235879      16.71010815 
Au      21.87867134      21.75822192      34.91935226 
Ag      31.23515260      28.22464337      30.23564697 
Au      19.26152543      13.81325375      29.47885266 
Au      22.29910112      25.28869223      12.97070767 
Au      15.96354737      14.68573603      28.09525666 
Au      25.75855827      33.85913893      29.32678355 
Au      26.60771050      14.56677590      31.11111790 
Ag      28.31954690      13.61700415      24.06387011 
Au      16.18801513      17.03214215      19.40427714 
Au      16.13312054      17.32112335      23.12945043 
Au      20.74931996      15.37688918      17.65431211 
Au      11.78123969      24.63974724      22.99800869 
Au      14.51336989      30.11840788      27.10786727 
Au      24.32512149      21.39600962      26.12371303 
Au      14.93358107      19.75564691      20.20422550 
Au      25.37702937      31.22215355      17.99833832 
Au      28.86624385      20.35073408      14.37606035 
Au      30.21025193      27.06579053      22.49132183 
Au      31.09718002      24.95747455      24.24468657 
Au      31.83802281      24.81732027      21.39544901 
Au      20.51281471      23.80508290      23.79989096 
Au      25.29202817      14.81297772      16.01991800 
Au      30.86684465      29.58810901      24.98352894 
Au      25.72422735      23.43688171      27.85368352 
Au      26.76842759      28.68350026      16.96446728 
Ag      20.81064659      31.36535435      33.06711759 
Au      17.64370765      23.97775212      23.31018398 
Au      22.98861257      19.31468536      24.48715413 
Ag      27.80209822      20.96423472      23.81228910 
Au      19.59187408      25.90291421      21.92864230 
Au      25.04489448      30.97080901      14.84638493 
Au      25.15702086      19.32387952      27.98133764 
Au      19.03939313      26.11981031      24.82439679 
Au      20.53939191      28.20366884      26.45119406 
Au      21.39073549      26.05131453      28.29594482 
Au      29.13380079      23.09819494      25.51145094 
Au      19.15093517      21.73832711      22.19029462 
Au      24.54621897      17.00432194      23.44618499 
Au      22.88982020      28.15027407      29.85769103 
Au      20.67526383      19.48689037      21.14781352 
Ag      20.31754252      22.21180720      31.32156774 
Au      24.82302906      30.13162200      28.67360471 
Au      18.02787781      28.30085860      22.99139787 
Au      28.07541176      19.02606057      28.58861198 
Au      18.87084058      20.14143543      29.79615302 
Au      29.80019434      22.78953168      22.56075198 
Au      19.55315025      21.56813976      19.24076333 
Au      18.22622222      17.67241260      25.25333446 
Au      15.66148750      22.13592917      24.64297643 
Au      16.66827560      26.12493816      21.44386364 
Au      26.50110640      24.84204259      17.21298275 
Ag      28.12816058      29.56615431      26.25518559 
Au      17.21437758      19.86302855      23.65854978 
Au      18.85651060      17.58466028      22.39524994 
Au      30.65079114      20.74986919      24.45146728 
Ag      22.08043974      27.40973917      17.64734715 
Au      21.13647603      19.34625509      18.29572408 
Au      22.22528192      17.17235522      19.86246393 
Au      21.87285623      15.36322928      27.61621513 
Au      18.92051904      24.44395927      32.50531085 
Au      26.37950652      25.68132716      32.55641321 
Au      14.76040082      24.22796381      22.79910150 
Au      29.61834355      20.69120352      30.19042432 
Au      23.76886624      32.10769863      26.75249098 
Ag      22.55264671      15.09154981      24.77752101 
Au      25.04521998      16.94441976      20.47646754 
Au      28.48934670      27.80505472      31.12094292 
Au      19.32531219      17.43589906      19.53179328 
Au      27.71981376      31.27714633      21.50243234 
Au      15.27666930      23.99077068      19.96110839 
Au      21.26361883      17.15919749      31.42711120 
Au      21.12636142      32.17690387      23.03677757 
Au      14.15408467      24.53662435      25.50619141 
Au      22.20952138      23.03742658      14.89191537 
Au      30.66983079      26.81776891      19.52206956 
Au      18.29973470      19.41994088      17.79453752 
Au      22.82067636      18.21976197      16.32656199 
Au      15.50014964      17.35495587      26.07314650 
Ag      30.30318378      30.10472471      28.01146701 
Au      29.76934254      18.47956195      19.77823947 
Au      13.55949200      21.60074957      22.69474592 
Au      30.34713773      17.65794733      31.06919789 
Au      26.76519254      15.92678966      18.52051281 
Au      20.78137572      32.30827157      26.32901929 
Au      19.13376266      27.96970363      17.22369737 
Au      25.84944954      17.98092129      16.65853597 
Au      14.45108310      19.47593835      24.45016534 
Au      19.07636630      33.46509073      20.77697845 
Au      23.85352386      21.98752707      12.40174205 
Au      34.61338672      22.58920878      27.53662629 
Au      29.34377278      32.98954405      29.16845802 
Au      19.24879017      31.11154397      16.49053592 
Au      23.66879980      15.01666390      18.80874888 
Au      13.79755640      27.02576642      19.33528812 
Au      20.96078376      26.79111771      34.40979838 
Au      19.54449009      28.62016232      32.25079287 
S      20.62865947      15.85649183      33.41052287 
S      28.61410584      32.79631610      19.80840621 
S      23.85570228      22.81620489      35.72580146 
S      24.12365315      18.17355302      35.55650971 
S      12.34669323      18.19880525      24.22365384 
S      32.15575839      17.58671915      29.54826820 
S      31.45784240      14.76056985      21.53247766 
S      30.08445572      19.38196767      16.13474491 
S      28.18961947      22.03654478      33.26682836 
S      23.04104611      27.89922551      34.76605466 
S      13.41641905      29.95387063      25.02750085 
S      16.38685665      17.97628282      17.22397765 
S      32.79238425      23.25328515      19.79039585 
S      27.03296766      30.75579185      33.33716453 
S      22.91441808      32.47379560      32.64817802 
S      17.18403584      31.43938069      17.59344977 
S      11.25187056      22.34673717      22.87692947 
S      25.01364046      13.24128943      26.82035672 
S      33.88815467      29.08841394      27.47736681 
S      28.57193230      26.53321696      33.23567862 
S      23.92900083      24.21725460      11.63251388 
S      27.41462420      25.74955775      13.11914085 
S      19.08811516      33.30562231      30.33735252 
S      28.74334250      17.56570675      32.79961232 
S      21.25303786      34.01117822      24.64127730 
S      31.13152028      32.42895536      27.74460351 
S      28.95657669      29.56835564      16.37233850 
S      33.51488744      17.31156999      23.89089219 
S      34.86452909      21.82018729      23.55995632 
S      19.12269157      13.68422580      25.60096286 
S      20.84651818      33.69035818      19.22724022 
S      12.59504541      19.39179545      19.67652698 
S      18.70644907      30.35754560      33.69627142 
S      31.87797762      31.03348934      23.31025366 
S      35.30253836      27.24193723      23.38294064 
S      31.29781692      30.45411439      31.36930875 
S      23.16600243      13.18678023      23.24837807 
S      32.12452930      19.18336020      19.77211138 
S      28.66274058      14.60066978      17.77563724 
S      15.43779881      30.36465347      29.26370988 
S      31.49564478      21.94280147      31.11277564 
S      20.54322927      26.52362727      13.94502804 
S      17.12147010      26.89581583      16.35915642 
S      27.46114982      12.82498653      21.92434640 
S      16.87421106      33.54165940      26.20085199 
S      15.29300624      21.52700396      31.17681614 
S      21.12175809      16.62778861      15.66127616 
S      24.76860425      29.04401672      13.52084403 
S      20.03074671      22.13841380      14.08811420 
S      21.17217952      31.17588153      15.12573639 
S      23.74355377      34.13066427      28.14635625 
S      13.41353080      17.26775646      29.41632601 
S      24.38025301      33.62141055      22.12210449 
S      27.74418918      21.10344620      12.43872744 
S      16.42063614      22.93394627      16.78802061 
S      26.11607944      16.55076370      14.66399834 
S      16.99963802      14.04346290      30.11844734 
S      28.52705654      14.04712300      29.84186887 
S      27.71527542      33.85384808      30.64954784 
S      32.69813082      28.19864796      19.59643987 
S      24.87666136      14.75220241      32.70161922 
S      14.33730780      29.32335391      19.32770802 
S      13.26171198      25.79284216      27.36997657 
S      34.49124364      20.25692201      27.87889471 
S      30.21569268      23.60416776      15.92222805 
S      18.81976640      25.76786228      34.58811899 
S      35.21072612      24.85288285      27.26568762 
S      19.76611427      20.68781550      34.63747773 
S      32.31004130      26.01861933      30.67018131 
S      23.70207632      19.66235130      12.76454274 
S      17.24477894      33.45986752      22.26353971 
S      15.64533526      26.11613386      30.64173695 
S      11.83124864      26.99857310      23.01874508 
S      24.40580320      13.15341002      17.43838250 
S      13.07682225      24.77786761      19.20818455 
S      21.53733727      13.40196930      29.05848054 
S      16.73292411      17.40106180      32.74831929 
S      15.74500983      15.72288829      21.34759066 
S      14.75080491      15.04791996      26.10592966 
S      25.28732637      32.88746067      16.20445264 
S      29.66226111      13.59439068      26.11209481 
S      20.13129850      13.78642513      19.31587931 
S      27.15592213      33.52539494      25.72035940 
S      12.80416362      21.60654313      27.69499383 
C      21.18327436      14.13248792      33.12933001 
C      30.35847872      33.11780578      20.28085501 
C      23.25661420      24.18065911      36.79919087 
C      23.41455899      18.98204596      37.04243628 
C      11.01179935      19.18697373      24.99862761 
C      32.59166787      15.81071491      29.39035455 
C      31.46378373      12.95663841      21.88132508 
C      31.74666505      20.14611371      16.01727713 
C      28.02392305      23.05259505      34.77939703 
C      22.64011193      29.40289337      35.73446142 
C      13.17712206      31.68543637      24.46739550 
C      17.04108616      16.61924490      16.17559223 
C      33.30832168      24.27778780      18.36196969 
C      26.87048169      32.48464667      33.92015876 
C      22.48923755      34.11842215      31.95486971 
C      16.98354790      33.26348613      17.52846027 
C      10.52516428      22.20585648      21.19710059 
C      26.43978440      12.20619686      27.31474846 
C      34.89709841      28.29372773      28.78458932 
C      28.29048388      27.64519698      34.66588505 
C      23.10040765      24.12433649       9.99152468 
C      26.83415920      26.41465924      11.51454970 
C      17.60663056      33.15615016      31.41306883 
C      29.48325355      18.50715963      34.19177560 
C      19.79245971      35.09614303      24.44031036 
C      32.66162599      32.61025668      28.74054475 
C      28.83411174      30.53840193      14.81980649 
C      34.42550696      16.64550389      25.33773486 
C      35.65626423      21.91807146      21.90795620 
C      17.51234243      13.01713114      25.03958904 
C      21.77698946      35.18084801      19.75519185 
C      12.47643592      17.84837986      18.69101500 
C      18.80953595      29.75291603      35.42661244 
C      33.57061013      31.45669566      23.86984847 
C      35.78363965      28.64063111      22.29725005 
C      32.34192647      30.11857051      32.84666183 
C      21.69852036      12.16595209      22.84270868 
C      33.20703987      17.78983431      20.25217329 
C      28.14840580      12.84411817      17.91912476 
C      14.22655058      29.60645375      30.41375173 
C      32.93635910      20.82593750      31.28255645 
C      19.04784384      25.79755330      13.16820938 
C      15.87413158      28.20804003      16.08225377 
C      26.41730659      11.35822624      22.29435064 
C      15.20398496      33.95212423      26.84404375 
C      15.24341522      20.67082952      32.79426085 
C      21.87397226      15.46563257      14.46053428 
C      23.22477015      29.28859083      12.56590214 
C      20.26507371      20.74665612      12.91983994 
C      21.60220011      32.96056853      15.16557286 
C      24.11359228      35.47675874      26.95702493 
C      11.92539066      17.15120876      30.49157872 
C      25.94130479      34.56910167      22.23762415 
C      29.05777387      21.05963754      11.15198260 
C      16.47443304      21.73356315      15.40879858 
C      27.91131029      16.25201762      14.44457257 
C      16.45647169      12.30412412      30.36828476 
C      29.80257641      13.82009081      31.14294345 
C      28.14242436      35.63916282      30.76728644 
C      32.57849688      29.39145147      18.20665505 
C      25.81563519      15.00124104      34.25968036 
C      12.95488204      30.16695232      20.19017708 
C      11.93577638      26.89179313      26.74565594 
C      36.03200022      19.66445701      27.07458124 
C      30.53846190      24.85949924      14.62894515 
C      18.97491917      24.56358871      35.96463850 
C      36.54887281      24.74737629      26.01263848 
C      19.71935754      19.33065008      35.86839922 
C      32.40345076      25.81701574      32.49266633 
C      24.91712603      18.85925804      11.65237431 
C      15.75706748      33.64187862      21.20441511 
C      15.20322149      25.28475082      32.21103782 
C      10.74442236      27.42215491      21.60045431 
C      22.93300842      12.43506078      16.61453120 
C      12.96625825      24.39964488      17.41647546 
C      21.53621770      11.95253822      27.93620965 
C      16.74446195      15.69887902      33.43037144 
C      13.95085667      15.35023294      21.30958377 
C      12.97200266      15.02964591      26.54353867 
C      26.96301490      33.58342360      15.94174980 
C      31.40388969      13.30859393      25.60704294 
C      18.34729273      13.46490992      19.02649414 
C      28.83656162      34.25114700      25.66875320 
C      12.15371151      22.52284417      29.14403787 
H      22.23098651      14.09397824      32.81270497 
H      21.05388648      13.57899137      34.06669589 
H      20.54184780      13.70647924      32.34656371 
H      30.85139361      33.62770196      19.44523087 
H      30.34898895      33.77027507      21.16174033 
H      30.88595585      32.18908608      20.52456931 
H      24.13285150      24.75958409      37.11461497 
H      22.56334999      24.83795337      36.26155280 
H      22.76484424      23.74393186      37.67577827 
H      23.18373073      18.20830360      37.78320574 
H      24.17917332      19.66303755      37.43465264 
H      22.51720350      19.55937310      36.79560408 
H      11.17914014      19.16655385      26.08316471 
H      11.01986399      20.22255460      24.64250848 
H      10.05379290      18.71340589      24.75457578 
H      33.39062807      15.73622496      28.64265522 
H      32.95732025      15.44881960      30.35798299 
H      31.72761288      15.22233697      29.06495607 
H      30.44659898      12.57685750      22.03059585 
H      31.93348649      12.45149255      21.02971756 
H      32.06542371      12.79079107      22.78181017 
H      31.67229429      21.23237868      15.89550495 
H      32.27435218      19.90740852      16.94966638 
H      32.26864494      19.70008532      15.16305977 
H      27.80203128      22.38471512      35.61959564 
H      28.97897058      23.56655865      34.94118118 
H      27.22052758      23.79204990      34.66364550 
H      21.93942433      30.05701224      35.19821824 
H      22.21206471      29.09994009      36.69701057 
H      23.57980027      29.94273373      35.90152777 
H      12.47722274      32.18535933      25.14646677 
H      14.13037670      32.22307757      24.43868046 
H      12.74680917      31.64379564      23.45943816 
H      17.24844957      17.03961665      15.18426295 
H      17.96527785      16.20069047      16.59079369 
H      16.27308836      15.84155727      16.09549353 
H      32.46430912      24.86033757      17.97181938 
H      34.11229927      24.95252952      18.67595223 
H      33.67445262      23.59538481      17.58504799 
H      27.17204558      33.19096528      33.13983610 
H      25.81688014      32.64259387      34.18087285 
H      27.50236849      32.60195121      34.80820647 
H      21.59182605      34.07493652      31.32863868 
H      22.31972577      34.79949319      32.79732054 
H      23.34021815      34.46662952      31.35617038 
H      16.06070911      33.51553100      18.06425522 
H      17.83333610      33.77428911      17.99435567 
H      16.88918307      33.56225452      16.47826729 
H      11.15937963      22.69643043      20.45147458 
H      10.43128258      21.13855642      20.96290108 
H       9.53604565      22.67750618      21.21721453 
H      27.32381777      12.80632379      27.54721810 
H      26.14392142      11.63442258      28.20256711 
H      26.66558955      11.52217229      26.48751489 
H      35.89282935      28.75155313      28.76679270 
H      34.40528289      28.49153639      29.74486404 
H      34.97378704      27.21205265      28.63150297 
H      28.25629393      27.02087943      35.56695072 
H      29.12700442      28.35134852      34.73091013 
H      27.35571678      28.20363973      34.56196800 
H      23.00311854      25.14534788       9.60470347 
H      23.73989647      23.53403970       9.32528187 
H      22.11304089      23.66049001      10.06807351 
H      25.97445107      25.84699026      11.14419576 
H      26.54940796      27.46068820      11.68309578 
H      27.66575421      26.35770941      10.80279114 
H      17.94937767      32.95727389      32.43562385 
H      17.06655934      34.10912922      31.37457575 
H      16.95670889      32.34228095      31.07561244 
H      30.37254199      17.98006975      34.55369156 
H      29.73983159      19.52794642      33.88953565 
H      28.72873511      18.54726011      34.98700404 
H      18.85642742      34.53106737      24.42158053 
H      19.77905072      35.79534632      25.28508401 
H      19.90863442      35.64695147      23.49901631 
H      32.52520926      32.20512434      29.74883194 
H      33.45221547      32.05252012      28.22406801 
H      32.92057295      33.67380099      28.78923510 
H      29.64836573      31.27096830      14.78700598 
H      28.94473323      29.82545650      13.99351631 
H      27.86114188      31.03794464      14.73239412 
H      34.09954778      15.60760222      25.47679955 
H      35.49946607      16.66972287      25.12068987 
H      34.20488048      17.22533506      26.23988330 
H      34.96681197      21.60406509      21.11783745 
H      35.93358628      22.96676783      21.74605279 
H      36.55383274      21.28989716      21.91277718 
H      16.99194252      12.59173498      25.90638648 
H      16.88931026      13.79602514      24.58983490 
H      17.71719917      12.23252766      24.30131465 
H      22.65573296      35.25826723      19.10324665 
H      21.13806121      36.06124027      19.62485198 
H      22.10745839      35.09477067      20.79548975 
H      12.73411938      18.10621199      17.65687984 
H      13.17400163      17.08582644      19.05206895 
H      11.44531589      17.48087377      18.74086719 
H      18.78048277      30.61943627      36.09702509 
H      17.94056191      29.10987309      35.60835634 
H      19.72082115      29.16989131      35.59775399 
H      34.11569401      30.56628816      24.21234687 
H      34.10662808      31.94074212      23.04543851 
H      33.46467573      32.15871350      24.70603559 
H      35.95989519      28.22612314      21.29756001 
H      34.98897834      29.39218623      22.23581094 
H      36.70587924      29.08507370      22.68772917 
H      32.02165331      29.20929438      33.36436620 
H      33.37587162      29.99627884      32.50198121 
H      32.28257172      30.97511220      33.52760723 
H      21.60668797      11.40176084      23.62422370 
H      20.79034229      12.78094448      22.82102353 
H      21.84925132      11.68886131      21.86818536 
H      33.29524210      17.12151351      19.38722067 
H      34.19099709      18.19562763      20.51703763 
H      32.80300654      17.23287355      21.10173410 
H      27.38130527      12.65959167      17.15744753 
H      29.02762349      12.21813296      17.72891440 
H      27.74531315      12.63613023      18.91648942 
H      13.31794519      30.21877622      30.41583035 
H      13.99614083      28.57556592      30.12622536 
H      14.68332983      29.61108065      31.41091400 
H      32.75528223      20.17017021      32.14294650 
H      33.09626460      20.21831366      30.38742967 
H      33.82024477      21.44895784      31.46481543 
H      19.09261471      24.70205852      13.18261558 
H      18.18314771      26.14376281      13.74843698 
H      18.98509561      26.16451224      12.13747219 
H      15.87067610      28.94945006      16.88620223 
H      16.11242891      28.70128244      15.13222370 
H      14.88885457      27.72999727      16.02040868 
H      27.03763450      10.57377157      22.74111399 
H      25.59109582      11.61814651      22.96553145 
H      26.00192802      10.99989632      21.34458703 
H      14.53876179      34.08228158      25.98228746 
H      14.81994085      33.15637351      27.49176609 
H      15.27024938      34.89453768      27.39935349 
H      14.95905934      21.41174838      33.55133143 
H      14.49288186      19.87246061      32.74847372 
H      16.21524751      20.23724776      33.04921782 
H      22.05902942      16.02994091      13.53847610 
H      22.82476126      15.06018178      14.83378783 
H      21.16396911      14.65477254      14.26073321 
H      22.42975104      29.71470958      13.18759373 
H      23.44555450      29.95792664      11.72638971 
H      22.91405081      28.30340514      12.19412447 
H      19.26945748      20.36950923      12.65495219 
H      20.77428748      21.10989885      12.01912483 
H      20.85460281      19.93924981      13.36443524 
H      22.59460417      33.07448617      14.71230321 
H      20.85322174      33.50316113      14.57749840 
H      21.61791143      33.33860497      16.19312866 
H      24.16822375      36.42128816      27.51003217 
H      25.05573510      35.28545363      26.43126738 
H      23.28617386      35.50620984      26.23664621 
H      11.96744747      16.19178312      31.01977675 
H      11.88936091      17.97110003      31.21433457 
H      11.03831825      17.18242784      29.84848349 
H      26.13030715      35.04235170      21.26719230 
H      25.81245487      35.33288465      23.01375984 
H      26.77963258      33.91248029      22.50041821 
H      29.94744763      21.60984174      11.47053618 
H      29.31512346      20.01014165      10.96822210 
H      28.64964079      21.50750076      10.23874900 
H      15.48399244      21.27109182      15.32462406 
H      16.72101065      22.28181068      14.49202340 
H      17.23083943      20.95845489      15.58797817 
H      28.38101675      15.92291170      15.37740843 
H      28.03556223      15.48497157      13.67132793 
H      28.36126235      17.19752365      14.11447752 
H      15.37833110      12.31485448      30.56497407 
H      16.66803118      11.68985494      29.48872447 
H      16.98917088      11.90483135      31.23904298 
H      30.75562366      13.61676597      30.64064892 
H      29.89508066      14.71406670      31.76969615 
H      29.51948753      12.95537706      31.75369870 
H      28.20461565      36.10229342      29.77867176 
H      27.36722851      36.13484308      31.36297036 
H      29.10964997      35.71851869      31.27675173 
H      32.70850326      28.82738119      17.27547970 
H      31.60628558      29.89658800      18.19272951 
H      33.38631358      30.12454386      18.31273245 
H      26.58237301      15.77349579      34.13742822 
H      25.10093186      15.30406167      35.03451617 
H      26.28297049      14.04714471      34.52895771 
H      12.79928207      29.74323525      21.18766982 
H      13.22452748      31.22650079      20.27697146 
H      12.04590784      30.06594267      19.58638992 
H      12.23988807      27.43881050      25.84899874 
H      11.05242782      26.28418832      26.51836536 
H      11.70015350      27.60775412      27.54288492 
H      36.06933706      19.95967154      26.02015724 
H      36.88639615      20.08404568      27.61752024 
H      36.04945318      18.57118233      27.15413969 
H      29.81311599      25.67703963      14.66836662 
H      31.55057178      25.24996318      14.79009449 
H      30.47671219      24.36942533      13.64952077 
H      19.80091993      23.86320267      35.79400519 
H      19.13144275      25.11741915      36.89722984 
H      18.03307128      24.00453102      36.01859610 
H      36.76294509      25.76653193      25.66821584 
H      37.43399518      24.31887965      26.49660562 
H      36.24649928      24.12451417      25.16442688 
H      19.76916094      19.76392833      36.87397903 
H      18.76288981      18.81019163      35.73603432 
H      20.54281395      18.61934165      35.71493533 
H      32.54107862      24.75040555      32.70969682 
H      33.26508663      26.38112192      32.86891624 
H      31.48608339      26.16481841      32.98234926 
H      25.86252792      19.41112254      11.63691479 
H      25.08302379      17.84363958      12.03203029 
H      24.48003283      18.82170923      10.64777602 
H      14.87896745      33.55167797      21.85527220 
H      15.77304497      34.63527414      20.74178967 
H      15.72701230      32.86399366      20.43447058 
H      15.09819230      26.05488739      32.98413319 
H      14.25075751      24.76276951      32.06177342 
H      15.97986848      24.56477840      32.50060724 
H      11.11874175      26.98727954      20.66690018 
H       9.73714217      27.04875906      21.81659312 
H      10.71824461      28.51483195      21.51615988 
H      22.45056298      11.76989700      17.34049936 
H      22.22109873      13.21192682      16.31568759 
H      23.26655318      11.86120886      15.74270421 
H      12.73312264      23.33165877      17.32630860 
H      12.15649027      24.99607579      16.98175473 
H      13.91340103      24.60591318      16.90778626 
H      22.54984701      11.86717474      27.52426994 
H      21.29076400      11.06225585      28.52632444 
H      20.81283152      12.08470531      27.12403994 
H      16.74972690      14.95355543      32.62849436 
H      17.65564178      15.59832312      34.03244486 
H      15.85893507      15.56965669      34.06266922 
H      13.34833148      16.26876367      21.32586336 
H      13.73018211      14.76235840      20.41118570 
H      13.72653237      14.75621705      22.20395260 
H      12.66291613      13.98447074      26.66056346 
H      12.79071120      15.58741867      27.46814240 
H      12.42854235      15.49509841      25.71212846 
H      27.74388510      32.85984095      16.20518850 
H      27.06134565      33.89553281      14.89628325 
H      27.05181064      34.45490524      16.60148470 
H      31.70073988      13.99270798      24.80530638 
H      32.04250012      13.47340777      26.48314692 
H      31.50612688      12.26987225      25.27155644 
H      18.24170251      12.94053792      18.06995403 
H      17.99093435      12.82552789      19.84283316 
H      17.76803517      14.39548998      19.01647832 
H      28.87369022      34.93423289      24.81141990 
H      29.00636497      34.80549501      26.59978417 
H      29.60724814      33.48180862      25.56481642 
H      12.13298484      23.58476444      28.86599812 
H      11.13913314      22.16357409      29.35035550 
H      12.79647270      22.37607005      30.01928010 
