699
Properties=species:S:1:pos:R:3 i=77 optimized=T E=-11078.7185785593 pbc="F F F" jobid=279_84-Ag-30_1-000005-PBE
Au      33.19127170      25.43280459      26.43659699 
Au      32.01549555      29.47446469      21.45537414 
Ag      34.35391149      28.02365335      25.39640078 
Au      29.95604498      15.15698643      19.65793335 
Au      34.03362034      19.70230828      23.56238727 
Ag      27.18402155      23.42365122      13.42915655 
Au      18.11754102      33.25076406      28.16602122 
Au      28.47157520      30.72267740      18.06215028 
Au      24.92015212      21.20497657      23.32094956 
Au      26.30242452      23.27766518      24.96712166 
Ag      28.21509145      25.17040661      23.67010264 
Au      23.81399360      21.62827490      29.07716856 
Ag      23.35853853      27.95051927      27.00617001 
Au      26.89713450      23.09987429      22.07683882 
Au      22.44287732      19.54284688      27.44359689 
Ag      27.25688716      21.15905945      26.75765601 
Au      22.00756034      21.43392433      22.78634251 
Ag      21.00450533      23.54205242      20.91419778 
Au      27.64560278      25.37063764      26.55251908 
Ag      20.00876932      24.06166344      26.75786160 
Au      25.42997362      21.01760502      20.39888149 
Au      24.33656280      25.82572423      28.81874621 
Au      23.81220052      27.75614112      24.10456514 
Au      26.21134228      27.75679643      27.64027584 
Au      20.95994696      21.91821140      28.49016449 
Ag      22.89425491      23.75297044      27.24577664 
Ag      21.50048264      21.66533030      25.64806815 
Au      19.60621429      19.81344987      26.92518690 
Au      25.85798594      19.09465891      25.14986892 
Au      25.30393798      23.60376407      30.74615796 
Au      22.97912722      25.42543183      19.65387965 
Au      20.93546752      27.92437652      23.55381599 
Au      26.62318679      27.46732594      24.73520736 
Au      22.54687882      21.30286032      19.89374524 
Au      21.91123753      25.86474394      25.43959750 
Au      27.23645240      25.59405569      29.47408966 
Ag      20.15375898      19.59685370      24.06093717 
Au      25.83647951      25.12389830      20.24439762 
Ag      23.49130934      19.17357990      21.69230694 
Au      22.36283446      23.90947818      30.11778185 
Au      21.07953826      17.45512532      25.87325500 
Ag      21.48181869      27.70972003      20.59889235 
Ag      24.35546243      27.48793609      21.24417604 
Au      24.47182879      23.10044953      18.60138186 
Au      28.64904834      23.24216724      28.41722576 
Ag      18.63055074      21.90863596      25.14357252 
Au      26.73238546      21.29592872      29.65715138 
Au      22.36179854      30.08388056      25.20661137 
Au      27.17925789      27.19586382      21.83027035 
Ag      21.82746873      19.72443418      30.30369204 
Au      18.54211498      26.37172980      27.77473331 
Ag      23.21134131      21.70931956      31.99870569 
Au      21.56554792      23.37320626      17.95159130 
Au      17.09982002      24.27583502      26.21816482 
Au      27.40716719      22.79282401      19.12066575 
Ag      23.90991495      17.15270176      26.36646122 
Au      23.30092596      17.41199878      29.32168805 
Ag      25.21106733      29.87657014      25.79301098 
Ag      21.61980408      17.20238758      22.94124747 
Au      28.79197103      18.80752061      25.69694146 
Au      22.78500931      29.82190265      22.23038587 
Ag      25.31002059      25.38392217      23.10599671 
Au      20.07636651      25.61073914      19.03717132 
Ag      29.50273412      27.29877641      25.39174971 
Ag      19.42814376      24.26126148      29.66222234 
Au      18.09109123      22.17207076      27.99871692 
Au      19.97403227      28.36076582      29.46626996 
Au      23.75982388      25.89110906      31.66284278 
Au      20.96719301      26.29576670      31.22373257 
Au      26.39762326      18.95032984      22.14347318 
Ag      24.69273007      19.50446323      30.87212027 
Au      20.39284406      17.59100056      28.80468291 
Au      28.79272308      24.91096804      20.73437614 
Au      19.50564679      30.16612417      24.62923090 
Au      25.65329267      29.64650126      22.81710235 
Ag      24.88234130      27.21627125      18.26167116 
Au      28.42848127      20.74668392      20.96402953 
Au      29.08040163      27.60286047      28.30525217 
Au      30.08808771      20.96463619      27.31273418 
Au      18.15046902      23.83446675      20.37814414 
Au      17.70137914      19.68746996      20.69744138 
Ag      25.72188017      27.85011255      30.51663555 
Au      28.21036421      23.53035777      31.27094018 
Ag      21.87881673      30.22736932      28.11576397 
Ag      21.82598253      24.15025208      33.00510332 
Ag      18.63654162      27.91460875      20.05981774 
Ag      16.28472532      21.92287390      21.72861943 
Au      30.47517524      25.21208231      27.12445316 
Au      23.39138743      23.50609665      24.39709907 
Ag      19.97526579      30.01510835      21.63143650 
Au      16.68860205      19.96599115      26.42409907 
Ag      26.76408692      16.98122904      26.97639021 
Au      30.02732718      25.36009942      30.06742822 
Au      17.55245463      28.39738489      25.91381983 
Ag      16.14209893      26.28444493      24.35802001 
Au      28.47410476      29.26185883      23.39739034 
Au      27.72647783      26.97732341      18.95689036 
Ag      24.09185307      18.97222229      18.69416212 
Au      27.38190447      16.83200172      24.00750533 
Ag      26.95623335      18.76106275      19.27295487 
Au      26.04731873      21.36567917      32.67232109 
Au      12.50853571      18.76677220      21.95197410 
Au      23.03333325      21.04626608      16.98094283 
Au      26.23172615      29.27652063      19.80703790 
Au      19.97447409      19.61141868      32.45266387 
Ag      26.16446900      17.15186946      29.86685809 
Ag      29.24536391      18.68731976      22.78430340 
Ag      27.67020708      29.92665958      29.37232109 
Ag      15.32667691      22.34224174      27.50686058 
Au      25.99244445      20.79381228      17.40174181 
Au      24.59509903      23.85207153      33.52478298 
Au      23.49350061      25.16291609      16.67180627 
Au      17.57161381      17.87942218      28.23061808 
Au      19.02745207      30.39715391      27.60516478 
Ag      23.40823287      29.52574059      19.36489656 
Au      22.40761207      25.64019725      22.49404277 
Au      16.16033184      20.08020330      29.28300901 
Ag      27.56554660      19.19333718      31.44656769 
Au      29.07456391      29.00580459      20.53770382 
Au      16.58106602      24.43528310      29.05835097 
Au      31.98455565      22.86155241      26.05643417 
Au      16.61105247      21.66526836      18.77318266 
Au      24.83729897      31.64164897      20.74008595 
Ag      21.90051930      31.78024952      20.34810603 
Ag      20.70352646      25.38681411      16.06577222 
Au      24.19767168      31.96859251      24.01142208 
Ag      20.53870019      29.76496592      18.70051663 
Au      23.08487988      14.94160128      21.68682442 
Au      30.22451604      22.56510781      19.61320892 
Au      25.11639813      22.90990055      15.67447216 
Au      18.79982815      23.63699981      17.33355840 
Au      28.90162617      20.57795738      18.06496845 
Au      17.62754645      22.46552201      31.11419435 
Au      17.14565001      28.63629035      28.84482614 
Ag      27.86190982      16.67051106      21.05546459 
Au      15.60905155      26.77677767      27.11733285 
Au      18.75394976      15.58783501      27.15078704 
Ag      19.59338935      15.42260856      24.04072657 
Ag      18.06129321      26.62844562      30.82576457 
Au      20.14362018      15.33571501      21.26678838 
Au      27.20119725      31.66369485      24.27388051 
Au      24.79531673      15.21315784      28.33291927 
Au      23.92342369      23.32590312      21.51965540 
Ag      20.18115987      21.12137779      16.39956121 
Ag      27.96307191      22.74507342      16.17602600 
Ag      31.46121215      20.34999844      21.77364108 
Au      26.75213585      31.87554208      27.55262386 
Au      25.76382489      14.89406739      25.23685271 
Au      28.78639715      16.30240547      28.90427001 
Au      25.98319318      14.88343680      22.32526396 
Ag      32.58078137      22.68865379      23.26360993 
Au      25.62582635      30.55432058      31.44365935 
Au      22.88458644      30.81874003      30.83412894 
Au      24.19420362      16.96033570      31.99722839 
Au      31.28970763      17.90505912      24.70752841 
Ag      17.00046286      25.97123771      18.59473334 
Au      31.60369744      23.05604330      28.80344928 
Au      29.40160706      16.04644458      25.98257300 
Au      15.52515555      29.16932484      23.93847992 
Au      16.05133343      28.91914613      21.04776661 
Au      16.99853615      31.15822934      25.60753090 
Ag      29.31202742      24.87395735      17.84948635 
Au      30.75613630      18.10368229      27.64199852 
Au      18.58298318      17.54518544      30.94192318 
Au      24.15979719      19.59288174      33.65778893 
Au      17.97956468      30.69300496      19.74034961 
Au      17.43511215      31.01888509      22.63180623 
Au      14.22025015      27.02654163      22.35116248 
Au      32.63358448      20.00503488      26.29446548 
Au      24.78397140      25.60703286      25.97034972 
Au      32.85135489      26.93342472      22.94088836 
Ag      24.70783547      20.15999443      14.84236381 
Au      20.07772631      31.06991974      30.20404966 
Au      31.78093131      27.80718811      27.16981782 
Au      23.76512769      28.57808379      32.56786638 
Ag      29.86181145      15.86546608      23.07149617 
Au      22.33545049      16.92813187      34.50270994 
Ag      13.92579396      19.64770721      27.43005713 
Au      23.95379592      27.81972967      15.59712811 
Au      15.02411694      17.57952783      30.43946664 
Ag      25.34759042      25.55756490      14.61735188 
Au      29.19714243      30.58788411      32.25119852 
Ag      22.70823351      30.16373923      16.71946570 
Au      21.99632259      21.74973727      34.90353379 
Ag      31.24175094      28.34771568      30.17077783 
Au      19.22545939      13.91542748      29.55127027 
Au      22.58030855      25.24885635      12.98523165 
Au      15.91187765      14.68796953      28.05385015 
Au      25.50557765      33.69450865      29.49247922 
Au      26.77106370      14.57760882      31.19908134 
Au      28.50621883      13.33272710      23.97726586 
Ag      16.30093159      17.25192425      19.55672788 
Au      16.22498660      17.08671266      23.36763115 
Ag      20.80658277      15.47306802      17.83290111 
Au      11.84037821      24.55835715      23.09664841 
Au      14.53211421      30.17149604      27.05270648 
Ag      24.37112593      21.38532066      26.19692501 
Au      14.93086427      19.93824735      20.16357754 
Au      25.35618315      31.22254689      18.01548262 
Ag      27.69517591      20.04894986      15.09701468 
Au      30.12013744      27.08117275      22.52804214 
Ag      31.15945835      25.04306090      24.33001130 
Au      31.64792095      24.86083359      21.49538483 
Au      20.50422744      23.77194549      23.85088987 
Au      25.13291639      14.74798454      16.09759220 
Au      30.64360653      29.89787523      25.09279212 
Au      25.75946574      23.44765026      27.85310789 
Ag      27.00262189      27.45577845      16.20606102 
Au      20.70351681      31.39870728      33.19618154 
Au      17.66411231      23.97230955      23.36856386 
Ag      22.99659103      19.29126555      24.54652220 
Au      27.79662523      20.97891125      23.86231315 
Ag      19.56316482      25.87876506      21.95106146 
Au      24.95596591      30.97099016      14.85373297 
Au      25.25088791      19.26367071      28.00921683 
Ag      19.03244466      26.09747303      24.86009438 
Ag      20.51552560      28.15522216      26.50963130 
Ag      21.43934678      26.04474209      28.32758000 
Ag      29.15353230      23.11015703      25.49593762 
Ag      19.16514798      21.71428963      22.24117727 
Au      24.50842256      17.03183016      23.50539846 
Au      22.91709751      28.17471050      29.85602377 
Ag      20.66070971      19.46359605      21.18067069 
Ag      20.44663938      22.16811293      31.35874086 
Ag      24.80657410      30.11582576      28.74163855 
Au      18.03455561      28.22746439      22.95793171 
Au      28.12409577      19.00947856      28.61054057 
Ag      19.00200191      20.13756973      29.81045842 
Ag      29.76823257      22.81924959      22.61774724 
Au      19.59580783      21.54876322      19.25531651 
Au      18.26012722      17.70382389      25.27275357 
Ag      15.77749059      22.09121031      24.62043168 
Au      16.70188687      26.07977492      21.45037024 
Au      26.43446675      24.92842517      17.33926219 
Au      28.02815225      29.63490973      26.31910294 
Au      17.23739512      19.82412469      23.54186062 
Ag      18.81672988      17.61538835      22.39355534 
Au      30.66908133      20.79632247      24.42038225 
Au      22.04403466      27.51172769      17.72275975 
Au      21.17482356      19.25868398      18.31605173 
Au      22.18749702      17.14141296      19.97175634 
Au      21.87732401      15.38163187      27.66017138 
Au      19.03750427      24.36931021      32.54749329 
Au      26.46003136      25.69450700      32.46126215 
Au      14.78945955      24.18508470      22.87971223 
Au      29.59979532      20.86964161      30.17718009 
Au      23.67293077      32.06922509      26.80460916 
Au      22.42957912      15.15158514      24.85547997 
Au      24.97931041      16.93799157      20.54744204 
Au      28.52918674      27.83976235      31.12824266 
Au      19.31890642      17.46857504      19.58910948 
Au      27.69138655      31.32252170      21.53395171 
Au      15.32054078      24.00306932      19.98252559 
Ag      21.36172386      17.13142176      31.49260269 
Au      21.18303369      32.08556616      23.17520234 
Ag      14.06290995      24.29615008      25.64017411 
Au      22.42028193      22.96419190      14.88917431 
Ag      30.58640947      26.83130249      19.57159998 
Au      18.31333858      19.42162909      17.78893633 
Ag      22.79727547      18.31020189      16.16353440 
Ag      15.55941436      17.29003996      26.22753872 
Au      30.30880677      30.13418422      27.99496883 
Au      29.86005620      18.32132479      20.01406354 
Au      13.67968986      21.50240617      22.75718884 
Au      30.46665478      17.59569333      31.07651923 
Au      26.60296225      16.05316158      18.46362157 
Au      20.51311129      32.30505497      26.31669997 
Au      19.25578469      27.70454088      17.20713747 
Au      25.83232576      18.11341787      16.51754257 
Au      14.56709357      19.38719523      24.51863322 
Ag      19.17513796      33.16044168      20.99185269 
Au      23.91537862      21.88276741      12.35642554 
Au      34.76074127      22.53954758      27.38553374 
Au      29.11504509      32.95105258      29.32622824 
Au      19.29124674      31.34606053      16.51884862 
Au      23.65791675      14.96343844      18.92944165 
Au      13.76972539      26.95551850      19.33999457 
Au      21.10641105      26.74585244      34.49264597 
Au      19.65232492      28.45237753      32.32905841 
S      20.57360850      15.76847297      33.47026180 
S      28.49613507      32.55905364      19.58627518 
S      23.97450585      22.83324709      35.65698885 
S      24.10335275      18.07628405      35.56316562 
S      12.46961651      18.08679253      24.19905971 
S      32.24404553      17.56866592      29.51996523 
S      31.49225726      14.94131879      21.43534481 
S      29.54351092      18.94863855      16.39311526 
S      28.33060409      22.09063685      33.24644838 
S      23.17949513      27.86492940      34.81969588 
S      13.47481954      30.06891670      24.94315824 
S      16.39432733      18.01744205      17.20544892 
S      32.56826644      23.15740215      19.98859374 
S      27.11946241      30.79423773      33.34403155 
S      22.75474664      32.45166326      32.72511294 
S      17.21662201      31.62507729      17.59783986 
S      11.34299638      22.26190001      22.97193970 
S      25.08225119      13.24702441      26.89142209 
S      33.82568256      29.18311452      27.44869950 
S      28.52426203      26.65015456      33.31535475 
S      24.24974033      24.13431177      11.71553277 
S      27.50041880      25.86282868      13.45809754 
S      19.12111474      33.32246363      30.29753791 
S      28.84471976      17.52875827      32.79178514 
S      21.19374648      34.01623467      24.72715326 
S      30.93228297      32.48260089      27.90150204 
S      28.80185156      29.18963861      16.28231864 
S      33.43133811      17.41896287      23.63988006 
S      34.94353046      21.87459355      23.43412501 
S      19.14823994      13.62250450      25.69454554 
S      20.78433061      33.68038681      19.23156798 
S      12.61537097      19.38384509      19.68319720 
S      18.70399494      30.23863256      33.66852569 
S      31.79975557      31.02002566      23.26174816 
S      35.21080352      27.18164457      23.29552401 
S      31.43175623      30.44366935      31.52645620 
S      23.05620321      13.23783525      23.45208376 
S      32.11225803      19.22003999      19.63521732 
S      28.63944408      14.92797985      17.71245084 
S      15.36357617      30.26786456      29.26271312 
S      31.61440966      21.98812045      31.00158889 
S      20.78917523      26.52431448      13.84057922 
S      17.13447189      26.95852003      16.28696474 
S      27.37283149      12.89854354      21.94844811 
S      16.83088173      33.52558977      26.20545613 
S      15.32444078      21.61602736      31.00955609 
S      21.08038233      16.60103546      15.68316846 
S      24.66929573      29.03235944      13.56283575 
S      20.15101732      22.28513396      14.20014808 
S      21.20849954      31.41685282      15.17469329 
S      23.47696500      33.96802598      28.32937105 
S      13.24421449      17.71964038      28.88731395 
S      24.24884264      33.56095671      22.12781779 
S      27.54152411      21.09047179      12.85533628 
S      16.50197969      23.05854978      16.73828792 
S      25.83858902      16.45858240      14.65657159 
S      16.92892298      14.04312648      30.08703947 
S      28.62532149      14.05166805      29.84360289 
S      27.47886722      33.82388944      30.78463322 
S      32.62437251      28.27996888      19.48885473 
S      25.05615077      14.80702649      32.79017337 
S      14.35348387      29.23735240      19.29390700 
S      13.38351284      25.92691780      27.47191884 
S      34.61384604      20.20753182      27.70120971 
S      30.37757508      23.49498440      16.07652906 
S      18.98564234      25.69337407      34.62855910 
S      35.41659988      24.79630815      27.17507856 
S      19.88120919      20.70090973      34.64964882 
S      32.25859958      26.09320672      30.66545100 
S      23.58592529      19.57631865      12.69469464 
S      17.16155609      33.42420778      22.36012612 
S      15.64116378      25.99411656      30.69438788 
S      11.90791100      26.91532258      23.13017845 
S      24.33328058      13.08101299      17.55629421 
S      13.07603745      24.70100127      19.25984121 
S      21.52369812      13.52442707      29.23141033 
S      16.54318004      17.52218201      32.25233969 
S      15.77551179      15.73081124      21.42397779 
S      14.70520426      14.96121038      26.05341735 
S      25.24963162      32.86576844      16.21608819 
S      29.70909228      13.60888156      25.98635679 
S      20.06250130      13.72746844      19.40167472 
S      26.99965088      33.59940559      25.73020212 
S      12.94486666      21.96040814      26.87764386 
C      21.19404583      14.05673185      33.22942462 
C      30.27506468      32.88430065      19.90020813 
C      23.39854843      24.19379988      36.74801734 
C      23.42672850      18.96373620      37.01727384 
C      11.08902756      19.01060475      24.97308708 
C      32.68427241      15.80208422      29.29191771 
C      31.61833805      13.11738303      21.62311453 
C      31.14622626      19.59540447      15.77926693 
C      28.15963887      23.10827951      34.75950173 
C      22.74748250      29.37804390      35.76119489 
C      13.36778412      31.79563074      24.33211734 
C      17.04545543      16.60583161      16.22796874 
C      33.17652636      24.12166033      18.55423668 
C      26.99645500      32.47941193      34.04927637 
C      22.35209621      34.11639996      32.07696010 
C      17.10473266      33.45728672      17.68406963 
C      10.59060355      22.12963681      21.30258677 
C      26.53757029      12.25983553      27.39247353 
C      34.87196795      28.37215562      28.72113452 
C      28.06769137      27.72088148      34.72854350 
C      23.57993601      24.22693815      10.00265126 
C      27.10696532      26.51717039      11.78878741 
C      17.66870018      33.19236387      31.41402102 
C      29.56914050      18.48062749      34.18602389 
C      19.75701634      35.11681077      24.45151662 
C      32.46817122      32.70719622      28.87670139 
C      28.72867357      30.17700013      14.73809351 
C      34.46271637      16.68765974      24.96998739 
C      35.72482552      21.98607856      21.77692946 
C      17.55560363      12.84033481      25.23648960 
C      21.67492410      35.19201272      19.77994497 
C      12.62730520      17.83232673      18.70330930 
C      18.77996512      29.71869346      35.42644979 
C      33.51007074      31.38409158      23.80885857 
C      35.73719643      28.60182588      22.25645581 
C      32.34143696      29.91481048      33.03384418 
C      21.56063066      12.23147755      23.13294668 
C      33.34065076      17.88955012      19.91143577 
C      28.24277625      13.13482689      17.74926419 
C      14.08837460      29.40712304      30.26256320 
C      33.00084653      20.79640235      31.05921912 
C      19.31783142      25.84941684      12.97613109 
C      16.03687943      28.41143586      16.09473363 
C      26.28874571      11.45713428      22.28763665 
C      15.16717731      33.92531083      26.87074534 
C      14.98172410      20.72354840      32.57280895 
C      21.74697560      15.38436875      14.48121407 
C      23.16187314      29.32161968      12.55916492 
C      20.24142999      21.01589597      12.87992636 
C      21.66302467      33.19331516      15.29071940 
C      23.83357725      35.38881901      27.22363729 
C      11.84154673      18.37905764      29.87650555 
C      25.76986163      34.57751948      22.19417335 
C      29.29091038      21.01742788      12.28343729 
C      16.56424598      21.89404880      15.32703376 
C      27.59636706      16.11320803      14.26933494 
C      16.44644796      12.27559164      30.25017359 
C      29.95971573      13.80543181      31.08074064 
C      27.84094378      35.62748903      30.78913224 
C      32.43139232      29.47149576      18.10565113 
C      25.99551488      15.11373570      34.33663308 
C      12.98790154      30.12438555      20.13974052 
C      12.16816681      27.14783159      26.85309805 
C      36.10320940      19.60710244      26.81102909 
C      30.76451621      24.59003225      14.65282308 
C      19.08902789      24.50241804      36.02252388 
C      36.54547540      24.74013006      25.72958557 
C      19.82681212      19.37929550      35.91913454 
C      32.31278016      25.87468094      32.48548739 
C      24.83890631      18.73168524      11.65230650 
C      15.76852700      33.61782842      21.17943329 
C      15.26792410      25.12154601      32.26131294 
C      10.77190220      27.36964584      21.76130249 
C      22.81493684      12.39228386      16.79035370 
C      12.93565396      24.28513238      17.47828326 
C      21.56064680      12.03285488      28.16625343 
C      16.38938436      15.91445148      33.11408004 
C      13.98546211      15.34051413      21.39697338 
C      12.92590347      14.92980883      26.49929420 
C      26.96362745      33.46046077      15.94417454 
C      31.47092281      13.33783348      25.54823938 
C      18.28563628      13.43173481      19.04153412 
C      28.66308729      34.36430780      25.78591588 
C      12.02431653      22.54619762      28.35726190 
H      22.23633046      14.04890454      32.89403080 
H      21.10255887      13.51477173      34.17734211 
H      20.56115062      13.58841033      32.46459440 
H      30.71916138      33.27887432      18.97913363 
H      30.34033752      33.63483008      20.69664649 
H      30.79981129      31.97453435      20.21508443 
H      24.28150130      24.77444220      37.04058929 
H      22.68759730      24.85279516      36.23504628 
H      22.93430067      23.75043124      37.63622921 
H      23.08310163      18.22464546      37.74966076 
H      24.24363567      19.55988024      37.44086511 
H      22.60632256      19.63270991      36.73397768 
H      11.16501017      18.86031456      26.05722558 
H      11.14119963      20.08029534      24.74454892 
H      10.14797276      18.58891982      24.60209457 
H      33.46342893      15.75820420      28.52132234 
H      33.07810022      15.41042717      30.23660956 
H      31.81557869      15.21815316      28.97077982 
H      30.64248899      12.66620850      21.83336197 
H      32.04178122      12.69430296      20.70556539 
H      32.29984924      12.92094264      22.45962106 
H      31.08550857      20.66908184      15.56494087 
H      31.90064022      19.42036600      16.55711330 
H      31.40985375      19.04166825      14.87017750 
H      27.95717423      22.43612148      35.60130155 
H      29.10485237      23.64109597      34.91651097 
H      27.34257727      23.83270735      34.65276983 
H      22.03531259      30.00632051      35.20841062 
H      22.32667409      29.08419257      36.72977016 
H      23.67678447      29.93895325      35.91786863 
H      12.68858868      32.35775587      24.98306679 
H      14.35574882      32.26812757      24.30981402 
H      12.95542883      31.75547796      23.31664439 
H      17.27899072      16.96299160      15.21833174 
H      17.95501899      16.18882627      16.67491892 
H      16.26555957      15.83711028      16.17674973 
H      32.41200134      24.82497620      18.20250682 
H      34.07660103      24.66504460      18.86274765 
H      33.40902586      23.41042133      17.75288995 
H      27.24039616      33.23972379      33.30053160 
H      25.96448233      32.61288189      34.39578588 
H      27.68772177      32.54170426      34.89761401 
H      21.51593264      34.08310599      31.37029358 
H      22.10105631      34.76096876      32.92728224 
H      23.25028124      34.49175407      31.57001764 
H      16.19471852      33.71339625      18.23793314 
H      17.98269001      33.88750728      18.17955364 
H      17.02773654      33.83975480      16.65988914 
H      11.21707398      22.61584178      20.54741084 
H      10.48597139      21.06305344      21.06872200 
H       9.60433374      22.60652968      21.33428383 
H      27.40462586      12.88751777      27.61533545 
H      26.26281287      11.68873794      28.28747720 
H      26.78188058      11.57517479      26.57101261 
H      35.86804293      28.82789706      28.67334250 
H      34.42387603      28.55679209      29.70468527 
H      34.95009300      27.29264674      28.55467354 
H      28.00669874      27.08047367      35.61685204 
H      28.85038111      28.47695113      34.86369565 
H      27.10966865      28.22127840      34.56153932 
H      23.61138750      25.27430109       9.68132798 
H      24.22649306      23.61942947       9.35898984 
H      22.55310562      23.85325951       9.95907572 
H      26.34277618      25.89821264      11.30633713 
H      26.73560864      27.54341638      11.89178557 
H      28.02603213      26.50746075      11.19113036 
H      18.04556593      33.02504211      32.43055110 
H      17.11842303      34.13895902      31.36628398 
H      17.01602950      32.36385504      31.12025184 
H      30.45235775      17.95400028      34.56326929 
H      29.83252421      19.49841257      33.87912984 
H      28.80450223      18.52850138      34.97100704 
H      18.82033231      34.55982781      24.36153984 
H      19.69045681      35.80472859      25.30307420 
H      19.94025915      35.68157747      23.52909220 
H      32.35955826      32.30452525      29.88899270 
H      33.26610829      32.17042191      28.34899785 
H      32.68988783      33.78011441      28.91108981 
H      29.50829029      30.94675958      14.75891808 
H      28.91834379      29.48713627      13.90645707 
H      27.74110453      30.63898700      14.60348477 
H      34.16060595      15.63890033      25.07776512 
H      35.51544408      16.73916308      24.66968565 
H      34.31105738      17.21478083      25.91737713 
H      35.00000071      21.77867916      20.98252282 
H      36.09501142      23.01303667      21.66816429 
H      36.56410450      21.28444309      21.72271754 
H      17.05954254      12.46813444      26.14077972 
H      16.88914140      13.54226164      24.72601183 
H      17.78731406      12.00205640      24.56774657 
H      22.46638307      35.39621686      19.04879736 
H      20.97447057      36.03391397      19.80567338 
H      22.13076502      35.04931170      20.76576174 
H      12.93935053      18.09220743      17.68511978 
H      13.32906685      17.10051890      19.11624147 
H      11.61149985      17.42125219      18.69539307 
H      18.65295367      30.60688561      36.05559950 
H      17.95348356      29.01787933      35.59349601 
H      19.72564238      29.21807698      35.65814638 
H      34.02522850      30.48033838      24.16117355 
H      34.06162593      31.83240865      22.97433230 
H      33.44196425      32.10261324      24.63442537 
H      35.86830353      28.23734376      21.23105485 
H      34.98875470      29.40053155      22.25305642 
H      36.69029414      28.97833552      22.64507381 
H      31.91361173      29.00050315      33.45629524 
H      33.38328169      29.73000592      32.74538127 
H      32.30537706      30.71966213      33.77661537 
H      21.28988311      11.71932492      24.06344385 
H      20.72510849      12.86100236      22.80172519 
H      21.80578997      11.50179001      22.35242412 
H      33.36145678      17.25189313      19.01999370 
H      34.32028250      18.36243387      20.05287178 
H      33.10342436      17.27916585      20.78745890 
H      27.49740050      12.94395583      16.96652326 
H      29.16248235      12.57770350      17.53748013 
H      27.84016943      12.83799038      18.72311613 
H      13.17673875      30.01504156      30.25922509 
H      13.88624479      28.40395091      29.87238585 
H      14.47900938      29.32484496      31.28392508 
H      32.82829014      20.11352028      31.90006621 
H      33.08764754      20.22000638      30.13430477 
H      33.92367008      21.36657773      31.22076107 
H      19.30629066      24.75386937      13.02392690 
H      18.43641281      26.24797304      13.49540569 
H      19.32480384      26.18852483      11.93456451 
H      16.03073008      29.04506575      16.98584469 
H      16.37978051      28.99748140      15.23442104 
H      15.02164846      28.03866200      15.91123844 
H      26.91948550      10.57761382      22.45823236 
H      25.64097687      11.64119408      23.15077500 
H      25.66941066      11.30563513      21.39507112 
H      14.49518884      34.07080981      26.01680517 
H      14.78772461      33.11872773      27.50798633 
H      15.24066568      34.85811822      27.44107964 
H      14.67363817      21.47198789      33.31313756 
H      14.16883369      20.00765229      32.40119257 
H      15.86460328      20.18494744      32.92912862 
H      21.90665126      15.90270443      13.52818844 
H      22.70314828      14.96016252      14.81888230 
H      21.01271130      14.58313388      14.33790844 
H      22.36707963      29.78236107      13.15556629 
H      23.43573790      29.97619998      11.72386337 
H      22.82593621      28.34592443      12.18636677 
H      19.21183024      20.72030475      12.64297341 
H      20.71670853      21.45001859      11.99256421 
H      20.81025652      20.13720834      13.19859016 
H      22.64700651      33.31466118      14.82274473 
H      20.91529291      33.78021982      14.74628796 
H      21.70635744      33.52027759      16.33550966 
H      23.87410102      36.29876054      27.83295952 
H      24.78019275      35.24169355      26.69099579 
H      23.00883149      35.44914334      26.50205597 
H      11.57538350      17.64843526      30.64861668 
H      12.09670901      19.33594674      30.34257470 
H      10.99137803      18.51927657      29.19799433 
H      25.90572202      35.05858289      21.21884505 
H      25.63254730      35.33373915      22.97608427 
H      26.64173845      33.95443777      22.43104543 
H      29.96945461      21.44613082      13.02815572 
H      29.55809414      19.96843191      12.11023917 
H      29.37707158      21.57334469      11.34260669 
H      15.55239048      21.50191612      15.17113821 
H      16.90001569      22.44803378      14.44285660 
H      17.25504559      21.06591782      15.53027568 
H      28.17657503      15.91486044      15.17727764 
H      27.63395105      15.24828415      13.59740585 
H      27.99785169      16.99944250      13.76258664 
H      15.36094760      12.23686424      30.39685166 
H      16.72107525      11.70288011      29.35994870 
H      16.95550730      11.86463116      31.12955624 
H      30.88272337      13.58316346      30.53277985 
H      30.09914580      14.70023304      31.69810917 
H      29.69217103      12.94792047      31.70833990 
H      27.86766047      36.03311737      29.77400196 
H      27.05810409      36.12848609      31.37033810 
H      28.81343422      35.77213548      31.27382933 
H      32.64430838      28.92859934      17.17686769 
H      31.41267701      29.87342087      18.05793904 
H      33.15650292      30.28286701      18.23191492 
H      26.74942414      15.89423785      34.18899943 
H      25.27818126      15.42574400      35.10482186 
H      26.47937918      14.17545355      34.63113729 
H      12.82110736      29.72241120      21.14427817 
H      13.28021961      31.17929437      20.20795172 
H      12.07819131      30.03190850      19.53575983 
H      12.36915471      27.44964306      25.82155424 
H      11.17974261      26.67394700      26.89965410 
H      12.18684650      28.03150536      27.50243321 
H      36.09649689      19.92667016      25.76286319 
H      36.98892407      20.00169862      27.32166246 
H      36.10650344      18.51237208      26.86744081 
H      30.01651198      25.37859792      14.52583534 
H      31.74992018      25.03762115      14.82826296 
H      30.79967432      23.98528380      13.73866193 
H      19.90471651      23.78429393      35.88000239 
H      19.23422651      25.06548221      36.95139211 
H      18.13563018      23.96184569      36.06058316 
H      36.74467159      25.77082119      25.41337308 
H      37.47477819      24.25735170      26.05316578 
H      36.10115742      24.17707899      24.90237603 
H      19.94130545      19.82971069      36.91172000 
H      18.84121045      18.90423220      35.84203865 
H      20.60621535      18.62365219      35.74592914 
H      32.41790320      24.80417034      32.70031854 
H      33.18679979      26.41618232      32.86747389 
H      31.40066605      26.25295260      32.96165784 
H      25.80082168      19.25427189      11.69210900 
H      24.95222301      17.71463245      12.04706697 
H      24.46835197      18.69616531      10.62172525 
H      14.83161035      33.56362255      21.74667069 
H      15.84828026      34.60085832      20.70079238 
H      15.78152144      32.82942190      20.41964243 
H      15.06376186      25.88191294      33.02462234 
H      14.38218057      24.49406615      32.10849076 
H      16.11070651      24.49411159      32.57998907 
H      11.09996432      26.93466816      20.81074473 
H       9.76596146      27.01632980      22.01481114 
H      10.76702779      28.46351182      21.68714348 
H      22.27861629      11.83774890      17.56900172 
H      22.16564784      13.18421322      16.40374561 
H      23.11464607      11.71750180      15.98052284 
H      12.72472043      23.21053217      17.41600647 
H      12.10351321      24.85442636      17.04964358 
H      13.86648235      24.50306621      16.94446058 
H      22.58089117      11.94280856      27.77161968 
H      21.31628252      11.16198394      28.78499481 
H      20.84656909      12.13018823      27.33990300 
H      16.39455740      15.08396456      32.40080893 
H      17.24412923      15.82790449      33.79598795 
H      15.45225229      15.92792671      33.68246733 
H      13.37003962      16.25131611      21.42227408 
H      13.77211413      14.76756566      20.48650597 
H      13.75798254      14.72703956      22.27679017 
H      12.62632464      13.88787506      26.65790343 
H      12.72905850      15.52507695      27.39691796 
H      12.37630648      15.35360315      25.64990533 
H      27.69217978      32.65159074      16.07044362 
H      27.02909021      33.88539059      14.93648008 
H      27.15879300      34.23597572      16.69415386 
H      31.78204187      13.99290676      24.72721678 
H      32.06624474      13.55952674      26.44218999 
H      31.60561573      12.28745008      25.26618959 
H      18.20830273      12.93702917      18.06635050 
H      17.87854233      12.77625524      19.82023442 
H      17.71725107      14.36834704      19.03033609 
H      28.75253530      35.03523547      24.92292406 
H      28.75188468      34.93829036      26.71627095 
H      29.45524991      33.61056164      25.75241649 
H      11.99875754      23.64292752      28.34403972 
H      11.00478084      22.14710985      28.30273129 
H      12.51057591      22.20767212      29.27862948 
