699
Properties=species:S:1:pos:R:3 i=83 optimized=T E=-10866.8780041831 pbc="F F F" jobid=279_84-Ag-10_0-000004-PBE
Au      33.28729124      25.40416371      26.20743512 
Au      32.10819422      29.46825737      21.53791112 
Au      34.65996780      28.09933718      25.48363984 
Au      29.93730445      14.90882649      19.72144938 
Ag      33.78127791      19.69011466      23.66369143 
Ag      26.81686538      23.31563120      13.20396607 
Au      18.10009744      33.29950601      28.14398704 
Au      28.59719906      30.69721025      18.02380790 
Au      24.95742664      21.23469962      23.28467366 
Au      26.30230403      23.25917128      24.94466893 
Au      28.27891171      25.15258566      23.64787695 
Au      23.80017141      21.63997521      29.08114453 
Au      23.44479685      27.91418273      27.00123553 
Au      26.97058043      23.09365581      22.02766834 
Au      22.40400511      19.57980164      27.40172118 
Au      27.24795858      21.16523862      26.75169378 
Au      22.06469151      21.48981529      22.74501241 
Au      21.04149324      23.57248626      20.83920877 
Au      27.67128101      25.33276922      26.60474901 
Au      19.99811714      24.06817159      26.72019342 
Au      25.50652527      21.07468966      20.37465900 
Au      24.38187415      25.78346979      28.82514757 
Au      23.92217233      27.74643081      24.03812661 
Au      26.31173801      27.69650844      27.65709310 
Au      20.91801703      21.93688668      28.43463612 
Ag      22.90548977      23.75039441      27.22551934 
Au      21.50365181      21.68845289      25.61114042 
Au      19.53531416      19.82108260      26.89378659 
Au      25.86643508      19.11851794      25.13518208 
Au      25.28720295      23.61127927      30.79310715 
Au      23.02682301      25.34393842      19.56658547 
Au      21.03373597      27.95527730      23.56265938 
Au      26.72219671      27.45866345      24.72860874 
Au      22.60773731      21.36985326      19.83334578 
Au      21.99164224      25.88173199      25.38736905 
Au      27.27691580      25.52056102      29.50208301 
Ag      20.15422674      19.63791693      24.04395391 
Au      25.92281663      25.07160571      20.18611198 
Au      23.54725169      19.19253288      21.67351617 
Au      22.38215203      23.96936415      30.07522553 
Au      21.05353942      17.47150781      25.87250405 
Au      21.61492211      27.64522056      20.58797552 
Ag      24.46844407      27.45631387      21.18965901 
Au      24.52589682      23.10225193      18.49724286 
Au      28.67739718      23.18833018      28.48514417 
Ag      18.61672774      21.94156652      25.09673300 
Au      26.71034863      21.28348962      29.67134080 
Au      22.47066641      30.07483760      25.14275913 
Au      27.29008548      27.19112354      21.84080373 
Au      21.76595936      19.73931135      30.26872414 
Au      18.54547565      26.42638135      27.74591558 
Au      23.13926183      21.71062559      32.01495291 
Ag      21.60816415      23.40599733      17.86433426 
Au      17.08790580      24.31331596      26.15640055 
Au      27.47914928      22.78544567      19.05669813 
Au      23.89780924      17.18915126      26.35424759 
Au      23.23081801      17.43442550      29.28811316 
Au      25.30094128      29.84815863      25.79017186 
Au      21.68811485      17.25349505      22.91537151 
Au      28.85020769      18.78642366      25.70226920 
Au      22.92239813      29.81093331      22.22034410 
Au      25.37316006      25.37316985      23.04906628 
Au      20.10960995      25.63728466      18.91184293 
Au      29.58432855      27.21106103      25.40018020 
Au      19.40652196      24.32948667      29.60131116 
Au      17.98809688      22.17844271      27.94083582 
Au      20.08256751      28.46764692      29.43524689 
Au      23.79764688      25.94821316      31.70686713 
Au      21.02225573      26.43744877      31.24886709 
Au      26.42094586      18.97589077      22.13931013 
Au      24.61907124      19.46106140      30.96688722 
Au      20.33046235      17.55804050      28.78204296 
Au      28.94429746      24.86134404      20.72706079 
Au      19.58134122      30.28664453      24.65456885 
Au      25.81430066      29.63736354      22.81933232 
Au      24.97469300      27.10817198      18.24583537 
Au      28.46989872      20.78258352      20.89787817 
Au      29.20741977      27.51830427      28.36800553 
Au      30.09751048      20.93108869      27.30455458 
Au      18.13728406      23.87514946      20.30506767 
Au      17.69167954      19.63079514      20.64160676 
Au      25.81716397      27.77217180      30.57135696 
Au      28.20113870      23.44978631      31.32956301 
Au      21.98552047      30.26937645      28.10269933 
Au      21.82144023      24.18011905      32.95252031 
Au      18.67939270      27.94240251      20.07799719 
Ag      16.30822503      21.91445453      21.67187156 
Au      30.55999855      25.14918118      27.18184464 
Au      23.43839785      23.53596241      24.34205646 
Au      20.07153032      29.97873873      21.64832147 
Au      16.60997834      20.00375966      26.39764151 
Au      26.76723060      17.01348032      26.94545501 
Au      30.06628271      25.25025924      30.07351517 
Au      17.69816637      28.50204512      25.90230957 
Au      16.24925242      26.33699543      24.25491580 
Ag      28.61668285      29.25241057      23.39377657 
Au      27.84952888      26.93208967      19.00554355 
Au      24.12953275      19.08560716      18.67970178 
Au      27.39643134      16.82592497      24.00805532 
Au      26.98006675      18.74564475      19.20328999 
Au      25.98495157      21.38085794      32.70063514 
Au      12.46971751      18.87427410      21.83432452 
Au      23.04665623      21.13020675      16.87444859 
Au      26.36585717      29.24602308      19.80368804 
Au      19.97976457      19.68494509      32.50012899 
Au      26.12424166      17.19789579      29.84205370 
Au      29.30238327      18.68993557      22.76575250 
Ag      27.78789829      29.83736605      29.38672747 
Au      15.19627207      22.44530908      27.40103398 
Au      26.06770923      20.78935572      17.29494444 
Au      24.56483898      23.85437241      33.58650584 
Au      23.57212270      25.15651181      16.45320547 
Au      17.52926183      17.95786320      28.22258618 
Ag      19.11438316      30.56373971      27.54644320 
Au      23.56217481      29.49270565      19.26097439 
Au      22.49125382      25.61890327      22.45581035 
Au      16.12052498      20.12760329      29.32708541 
Au      27.50079179      19.18701771      31.43435663 
Au      29.18815185      29.00260486      20.57683398 
Au      16.50372934      24.45713639      28.96764227 
Au      31.99289322      22.85291696      26.04575533 
Au      16.65340299      21.56927652      18.81659984 
Au      24.90746062      31.64312168      20.74876019 
Au      22.00798673      31.73501984      20.31965809 
Au      20.65456395      25.46205485      16.08236013 
Au      24.32295199      31.92989373      23.99986855 
Au      20.67455056      29.72511016      18.75053790 
Au      23.15800848      14.96348557      21.59894830 
Au      30.32625854      22.53159587      19.54394378 
Au      25.02635037      22.87104736      15.52093736 
Au      18.71753221      23.70465009      17.27183879 
Au      28.93676540      20.54970825      17.97377975 
Au      17.59950734      22.52512568      31.04168187 
Au      17.25691924      28.74033420      28.77830313 
Au      27.90695115      16.68167164      21.05674348 
Au      15.62755173      27.01231865      27.04761053 
Au      18.73594764      15.65763288      27.16724465 
Au      19.65356092      15.46223703      23.97178453 
Au      18.10813798      26.77129952      30.78987736 
Au      20.23880294      15.38212454      21.20371391 
Au      27.32403604      31.64897422      24.24984658 
Au      24.88610227      15.19526741      28.36097707 
Ag      23.99779003      23.32558852      21.44648268 
Au      20.13067538      21.20178996      16.34318003 
Au      27.84258782      22.63183973      15.96520136 
Au      31.45295233      20.40655758      21.74687710 
Au      26.93213588      31.82943500      27.51227873 
Au      25.74026769      14.90609118      25.22012158 
Au      28.75199959      16.27791546      28.91879149 
Au      26.02595340      14.86861648      22.28712256 
Au      32.62830035      22.65362656      23.24071260 
Au      25.75994120      30.52819516      31.38811136 
Au      23.00629923      31.00290265      30.73074092 
Au      24.19129851      16.83720515      31.94670383 
Au      31.38784980      17.85318195      24.77434559 
Au      17.06842212      25.97480162      18.58586180 
Au      31.66770187      22.92756931      28.80138525 
Au      29.41957821      16.01817596      26.01791531 
Au      15.56835504      29.19341532      23.97450247 
Au      16.09821494      28.94556293      21.07542101 
Ag      16.99705066      31.22297599      25.59847173 
Au      29.46799430      24.90445156      17.85543493 
Au      30.80472745      18.06937369      27.66850204 
Au      18.53429648      17.56773681      30.95365289 
Au      23.97803781      19.69763294      33.77018573 
Ag      18.09834433      30.76409545      19.75933510 
Au      17.51016886      31.01993109      22.66837066 
Au      14.20436287      27.06245575      22.40520262 
Au      32.70395860      20.04708404      26.44165905 
Au      24.84224708      25.57399126      25.96294148 
Au      32.99252976      26.87624666      22.99238953 
Au      24.83402743      20.01334803      14.91745149 
Au      20.16884597      31.17207793      30.17160621 
Au      31.84439660      27.75849541      27.13702112 
Ag      23.75908870      28.66317064      32.56740893 
Au      29.88582760      15.88113970      23.08435840 
Ag      22.48301498      17.04519784      34.41156764 
Ag      13.93851063      19.45911404      27.51387190 
Au      24.15316866      27.87529093      15.56694486 
Au      15.07468132      17.54735313      30.52216087 
Au      25.69442347      25.62537104      14.62361451 
Au      28.89784564      30.56390348      32.52739459 
Au      22.63092592      30.10094273      16.64890579 
Au      21.95605777      21.77928852      34.97320926 
Au      31.52451120      28.24788475      31.38227201 
Au      19.17156278      13.88276327      29.47987699 
Au      22.18733773      25.14587866      12.79144365 
Au      15.87966854      14.65552825      27.96159655 
Ag      25.24769761      32.87246113      29.64757178 
Au      26.72040509      14.56190452      31.19686272 
Au      28.55460852      13.32909396      24.06796981 
Au      16.19777307      17.11048053      19.41714863 
Au      16.21629351      17.20353535      23.24741006 
Au      20.69359031      15.37975488      17.66386916 
Au      11.86660308      24.62256105      23.14544218 
Au      14.64093171      30.20799684      27.15986617 
Ag      24.36611709      21.40434812      26.17719116 
Ag      14.91123203      19.82881595      20.25646159 
Au      25.50964528      31.22639864      18.02623482 
Au      28.63347249      20.31117895      14.32187945 
Au      30.25606193      27.06431333      22.50331488 
Au      31.21292956      25.01155962      24.27683100 
Au      31.87477034      24.82344662      21.41860566 
Au      20.54070415      23.78869269      23.81372777 
Au      25.23799903      14.74400035      16.07710073 
Au      30.80117416      29.75710043      25.09538051 
Au      25.76572667      23.43051747      27.88538252 
Au      27.07435395      27.58043299      16.33889195 
Au      20.76184614      31.45290170      33.20764714 
Au      17.68859195      23.98149163      23.26935511 
Ag      23.00001153      19.33193984      24.53374818 
Au      27.82337416      20.95483837      23.84931535 
Au      19.61170878      25.89720957      21.91365679 
Au      24.92881231      31.02069727      14.84788739 
Au      25.20735938      19.31036003      28.00381692 
Au      19.09640324      26.11116569      24.82720811 
Au      20.59132953      28.20995712      26.49837745 
Au      21.46566749      26.06748926      28.30572081 
Au      29.13844209      23.09465234      25.50748703 
Au      19.17808974      21.72922374      22.16950039 
Au      24.54453457      17.03971835      23.46907608 
Au      23.00149090      28.19485683      29.89109458 
Au      20.70854161      19.50084109      21.11755521 
Au      20.41444174      22.23355525      31.32176847 
Au      24.96395331      30.07566472      28.73112829 
Au      18.07950224      28.25489767      22.97132439 
Au      28.15278845      19.00703125      28.57838784 
Au      18.95742798      20.17062143      29.80212977 
Au      29.84588792      22.79379427      22.62670751 
Au      19.62464940      21.59645611      19.18539108 
Au      18.23061313      17.72221001      25.23819376 
Ag      15.73479127      22.14834061      24.56381317 
Ag      16.67540468      26.09868362      21.37977203 
Au      26.54045475      24.86411507      17.27254279 
Au      28.14429755      29.54815898      26.28876137 
Au      17.23367640      19.88313155      23.54356670 
Au      18.86091731      17.65923979      22.35195111 
Au      30.74963247      20.70990981      24.45734757 
Au      22.14507544      27.42943321      17.64200595 
Au      21.20208260      19.33729008      18.22592273 
Au      22.22222382      17.18766974      19.84455718 
Au      21.91304688      15.37904496      27.65100221 
Au      19.03384281      24.50429435      32.46680104 
Au      26.48208202      25.63689177      32.54518890 
Au      14.83046211      24.19020249      22.69298391 
Au      29.63878007      20.77289857      30.19927213 
Au      23.91461039      32.12335735      26.82931131 
Au      22.51638901      15.15974051      24.84318662 
Au      25.01569540      16.90390834      20.46195135 
Au      28.62291637      27.78264077      31.17456741 
Au      19.33829550      17.46933268      19.49223942 
Au      27.76209193      31.29678541      21.50245771 
Ag      15.31936827      23.97652333      19.84931124 
Au      21.33054954      17.16171567      31.49817436 
Au      21.03359358      32.19438080      23.03854692 
Au      14.17534734      24.61185795      25.35933262 
Ag      22.26647048      23.05081162      14.83443770 
Au      30.70078338      26.82665301      19.53127080 
Au      18.37546499      19.42507746      17.68309326 
Ag      22.92694240      18.17893672      16.26872040 
Ag      15.55294739      17.29717468      26.17095042 
Au      30.37127729      30.04590084      28.04754760 
Au      29.81620166      18.31719400      19.87042895 
Au      13.69174483      21.54259399      22.63167907 
Au      30.49018345      17.54453586      31.05867707 
Au      26.77585541      15.91432578      18.50134200 
Au      20.96602160      32.29350428      26.31238605 
Au      19.19492118      28.01080036      17.19679611 
Au      25.87507843      17.95265234      16.63232762 
Au      14.53245132      19.42759038      24.49044172 
Au      19.07645856      33.44024350      20.79439252 
Au      23.85266889      21.86635636      12.36492749 
Ag      34.48125179      22.52876940      27.55889936 
Au      28.97886389      32.93932864      29.48120215 
Au      19.20153966      31.20818497      16.57220444 
Au      23.58829691      14.98436336      18.81314714 
Au      13.84181486      26.90445764      19.38805414 
Au      20.98655180      26.77641494      34.44215603 
Au      19.62726059      28.60734818      32.29504546 
S      20.61743402      15.85532989      33.44145910 
S      28.65314966      32.51658437      19.56172649 
S      23.92227722      22.88236114      35.74586083 
S      24.24043822      18.18551022      35.62137201 
S      12.45400087      18.15082840      24.07714518 
S      32.28045804      17.46856847      29.52578308 
S      31.47478244      14.90577256      21.50868782 
S      29.83332152      19.28439503      16.07633656 
S      28.26396804      22.02378578      33.32421328 
S      23.06530296      27.86468349      34.81745630 
S      13.55457182      30.04542820      25.07477490 
S      16.39673271      18.04710007      17.23361737 
S      32.66779940      23.20433381      19.75829421 
S      26.78766542      30.72065130      33.57353315 
S      22.81270854      32.48615037      32.71725093 
S      17.10131377      31.51944424      17.60541538 
S      11.38080329      22.31708369      23.06192342 
S      25.03178249      13.26135644      26.87919549 
S      33.90600201      29.06869626      27.49206297 
S      28.57685872      26.54126772      33.36161727 
S      23.86472029      24.07110180      11.52832946 
S      27.35028380      25.77379459      12.86763298 
S      19.13514257      33.36211602      30.25893605 
S      28.82893890      17.58266815      32.74072312 
S      21.26014001      34.03784747      24.59760384 
S      30.86317678      32.40081331      28.16113077 
S      28.90001570      29.17375124      16.21616263 
S      33.55733427      17.25693231      23.86742699 
S      34.92095445      21.85724860      23.46489187 
S      19.15084065      13.74909181      25.60882801 
S      20.88205575      33.66096593      19.28376346 
S      12.52490292      19.50747795      19.56851447 
S      18.72823459      30.36998887      33.69374539 
S      31.87022450      31.02653208      23.33020364 
S      35.34992046      27.20636708      23.41486364 
S      31.15777891      30.53531579      31.84399292 
S      23.06707345      13.27596770      23.36893293 
S      32.08282361      19.21133213      19.70986572 
S      28.65014964      14.54041522      17.78264745 
S      15.59596366      30.47316259      29.30534904 
S      31.65568617      21.89842229      31.00841246 
S      20.47255660      26.37501753      13.81077878 
S      17.18120200      26.95848450      16.32994192 
S      27.39116277      12.84068557      22.06934941 
S      16.82170666      33.62889752      26.19712908 
S      15.31774005      21.66540360      31.08784200 
S      21.07200219      16.63336942      15.68137855 
S      24.64493331      29.11936819      13.49393312 
S      20.02015758      22.09860315      14.10090723 
S      21.11384440      31.32092640      15.18911479 
S      23.48955364      34.03542233      28.26754961 
S      13.32542965      17.50399228      28.94247475 
S      24.36213358      33.55754986      22.17767447 
S      27.58579068      21.12223281      12.37349657 
S      16.40727343      22.95982180      16.80141572 
S      26.04600886      16.45187896      14.67979583 
S      16.87594739      14.03839233      30.01523494 
S      28.59719127      14.03274048      29.86669973 
S      27.25169646      33.83472989      30.80891681 
S      32.69512192      28.26064117      19.56716534 
S      25.02230061      14.73240474      32.83155308 
S      14.40750173      29.19786084      19.33471576 
S      13.48787027      25.87978818      27.33188709 
S      34.77756206      20.09962258      27.71312816 
S      30.13499105      23.59322942      15.92789353 
S      18.83428216      25.75577269      34.56354469 
S      35.34190678      24.79913289      27.33780918 
S      19.85968796      20.67145424      34.71122586 
S      32.18105728      26.01606590      31.03790146 
S      23.70324580      19.55429357      12.82414923 
S      17.20345477      33.40571547      22.22984264 
S      15.74875463      26.13028644      30.58748375 
S      11.83978625      26.98629262      23.06288120 
S      24.34648817      13.09212567      17.50073326 
S      13.00800293      24.69901150      19.25682070 
S      21.47162434      13.50111388      29.16099238 
S      16.56752802      17.52175171      32.35614800 
S      15.72012624      15.78135261      21.33367093 
S      14.71441886      14.96614024      25.94039910 
S      25.29835517      32.86922186      16.26212999 
S      29.75959447      13.59514611      26.07988988 
S      20.09809480      13.79459661      19.34288370 
S      27.31533040      33.55711971      25.76892070 
S      12.89042968      21.72615410      27.19187359 
C      21.20036978      14.13723054      33.16514488 
C      30.43080736      32.82609798      19.89465253 
C      23.32926967      24.27540145      36.78287752 
C      23.52913824      18.99738835      37.10672916 
C      11.07059533      19.03946743      24.88583777 
C      32.66692599      15.69353228      29.27201522 
C      31.69172963      13.11439261      21.84596763 
C      31.52941681      19.95401388      15.87791056 
C      28.09241415      23.05080983      34.82940608 
C      22.67605129      29.33137572      35.84981706 
C      13.32268527      31.76482167      24.47722180 
C      16.96020483      16.65587574      16.17677351 
C      33.16343199      24.19406280      18.30116392 
C      26.58118027      32.45521385      34.13004185 
C      22.39231435      34.16629510      32.11398405 
C      16.91167053      33.34643678      17.54805842 
C      10.50623875      22.18824628      21.45284854 
C      26.47655111      12.25286265      27.37435139 
C      34.83741954      28.25407415      28.84359973 
C      28.15695478      27.61068792      34.78722053 
C      23.08948454      23.89841966       9.86815977 
C      26.55968214      26.50279053      11.38708863 
C      17.70100993      33.22494000      31.39661404 
C      29.56325584      18.52488693      34.13302906 
C      19.76415654      35.08447385      24.48095324 
C      32.36946192      32.65683525      29.17052737 
C      28.64347109      30.15621309      14.69098253 
C      34.57293346      16.75334887      25.31080116 
C      35.66898724      21.92297271      21.79059647 
C      17.57542506      12.99053874      25.06697310 
C      21.79530120      35.15016418      19.84531135 
C      12.43348743      17.94821773      18.60108844 
C      18.80869208      29.79084758      35.43293688 
C      33.57700755      31.39817607      23.88527025 
C      35.89895000      28.61012604      22.36707390 
C      32.07967115      30.80122680      33.41306527 
C      21.55795007      12.29783172      23.03153546 
C      33.26653097      17.87840074      20.12778535 
C      28.11892958      12.79554321      17.99074983 
C      14.40992355      29.69361649      30.46843152 
C      33.03471126      20.69703937      31.07027408 
C      18.93786850      25.63869174      13.12762331 
C      15.91678997      28.26078396      16.10198123 
C      26.29514996      11.42696621      22.47737167 
C      15.16340662      34.01899411      26.88629918 
C      15.14206298      20.77787934      32.68105327 
C      21.73234595      15.42977980      14.46295370 
C      23.06108513      29.33902484      12.59817056 
C      20.20713354      20.65736021      12.98300313 
C      21.58126485      33.09156202      15.30904844 
C      24.27751879      35.43933798      27.38939810 
C      11.86105554      18.11778692      29.87114923 
C      25.90118926      34.54233569      22.28318435 
C      28.98998806      21.50476592      11.24964488 
C      16.38386902      21.77497253      15.40582586 
C      27.82986378      16.12555778      14.41224749 
C      16.37517869      12.28083081      30.22224134 
C      29.91286350      13.77186386      31.11986297 
C      27.21463836      35.61193292      30.33965553 
C      32.50964959      29.45479832      18.18608599 
C      25.98857944      15.12357870      34.34367175 
C      13.01143362      30.06584285      20.15048625 
C      12.15159127      27.02342804      26.82343912 
C      36.24236927      19.84648091      26.62984537 
C      30.29696110      24.79089387      14.55332578 
C      18.96189972      24.51831331      35.91350054 
C      36.61822659      24.63689937      26.02671954 
C      19.85552252      19.31435330      35.94254603 
C      32.18168600      25.30828179      32.72993758 
C      24.87959687      18.70545225      11.70317211 
C      15.73080263      33.54087762      21.14302760 
C      15.32652157      25.31522752      32.16970139 
C      10.74527508      27.30505175      21.62332490 
C      22.88068291      12.37270475      16.66376173 
C      12.82167250      24.35537107      17.46195057 
C      21.52493071      12.02594786      28.07306713 
C      16.46428423      15.87445986      33.14996915 
C      13.92281477      15.43240771      21.27164574 
C      12.92587223      14.94642465      26.34670376 
C      26.98051845      33.50933051      15.90445146 
C      31.52490269      13.34547255      25.64396710 
C      18.30973559      13.47029288      19.08307994 
C      29.01767802      34.22975385      25.78535081 
C      12.14100551      22.23748968      28.78594615 
H      22.26275021      14.10759330      32.90118428 
H      21.03466006      13.57810377      34.09375368 
H      20.60584118      13.70007412      32.35317990 
H      30.89605809      33.19876350      18.97503535 
H      30.49030176      33.59092678      20.67814201 
H      30.93972410      31.91736098      20.23779482 
H      24.20537945      24.87154590      37.06468034 
H      22.62235847      24.91151037      36.23777006 
H      22.85697241      23.86009447      37.68036630 
H      23.29409082      18.22245480      37.84522728 
H      24.28709874      19.67921805      37.50965842 
H      22.63079567      19.57387832      36.86182282 
H      11.17654933      18.89569362      25.96826777 
H      11.08973728      20.10985519      24.65336938 
H      10.13159460      18.59358594      24.53834663 
H      33.43835987      15.63935412      28.49426719 
H      33.05732144      15.28011352      30.20886083 
H      31.77808662      15.14020661      28.95181759 
H      30.73723754      12.63768129      22.09549297 
H      32.12861344      12.64747562      20.95604754 
H      32.38690025      13.01818818      22.68820211 
H      31.50926983      21.04411952      15.76923461 
H      32.09242345      19.67957570      16.77897914 
H      31.98099684      19.49092644      14.99323605 
H      27.87379545      22.38398855      35.67156116 
H      29.04395671      23.57052292      34.99263104 
H      27.28582454      23.78564738      34.71283688 
H      22.00596436      30.02779948      35.32780283 
H      22.22434336      29.00379576      36.79286419 
H      23.62610907      29.83863329      36.05864706 
H      12.61816627      32.27707592      25.14217356 
H      14.27426652      32.30597409      24.44320119 
H      12.89786860      31.70107912      23.46810252 
H      17.15145457      17.06085249      15.17590082 
H      17.88060635      16.20451009      16.56492544 
H      16.15819756      15.91050648      16.12966198 
H      32.39335942      24.93535706      18.05133428 
H      34.10667077      24.69957615      18.53857864 
H      33.30170561      23.50687351      17.45799804 
H      26.92621342      33.15944388      33.36549704 
H      25.51268516      32.60891534      34.32430862 
H      27.15617999      32.58056210      35.05478988 
H      21.56065730      34.14121039      31.40193826 
H      22.12809490      34.78055476      32.98244679 
H      23.28494007      34.57191859      31.62213203 
H      15.94523819      33.59078937      18.00522181 
H      17.71500657      33.85015666      18.09755329 
H      16.90842828      33.67143799      16.50198533 
H      11.06832545      22.68921990      20.65749440 
H      10.40171614      21.12214900      21.21492730 
H       9.51843711      22.65009458      21.56249830 
H      27.35398199      12.86924783      27.58829736 
H      26.20081134      11.68826726      28.27309775 
H      26.70440370      11.56346231      26.55222396 
H      35.81372639      28.74644835      28.92265164 
H      34.26603182      28.39647292      29.77000707 
H      34.97254278      27.18441768      28.64702607 
H      28.09735872      26.97074785      35.67601231 
H      28.95501703      28.35252360      34.91347727 
H      27.20451995      28.12764421      34.63906567 
H      22.97514613      24.90345290       9.44575517 
H      23.76564987      23.30663414       9.24091539 
H      22.11452342      23.40746062       9.93279349 
H      25.71612111      25.89313808      11.04773164 
H      26.21571910      27.51547001      11.63005919 
H      27.32560504      26.54696001      10.60268184 
H      18.09197200      33.06071121      32.40798989 
H      17.14622722      34.16925602      31.35466228 
H      17.04896894      32.39385014      31.10843281 
H      30.39943335      17.94904522      34.54490750 
H      29.89953487      19.51486622      33.80842628 
H      28.77980781      18.64028048      34.89202357 
H      18.84484474      34.49269087      24.46098257 
H      19.75047929      35.74513918      25.35610912 
H      19.83762520      35.67971718      23.56262918 
H      32.26554215      32.19667090      30.15837491 
H      33.20546755      32.19776688      28.62878493 
H      32.53074450      33.73686502      29.26600133 
H      29.40952602      30.93869643      14.64252056 
H      28.75880491      29.47060662      13.84270275 
H      27.63863412      30.60044646      14.66216291 
H      34.30978112      15.72020312      25.56707808 
H      35.62982311      16.79801136      25.02212370 
H      34.39108507      17.40404943      26.17330486 
H      34.93900647      21.65631024      21.01912130 
H      36.01757242      22.94783711      21.61605782 
H      36.51967900      21.23249182      21.76204301 
H      17.08151363      12.54732088      25.94015471 
H      16.90777731      13.72825602      24.61198298 
H      17.81918496      12.20985462      24.33613478 
H      22.70482714      35.21777070      19.23602963 
H      21.16671128      36.03143412      19.67581039 
H      22.07273371      35.07135868      20.90150222 
H      12.56607132      18.22154377      17.54726163 
H      13.22778226      17.24949184      18.88625029 
H      11.44999631      17.48781631      18.74319176 
H      18.76180803      30.66379932      36.09349865 
H      17.93717620      29.14638823      35.59825932 
H      19.71983183      29.21337746      35.62146818 
H      34.09106753      30.49337815      24.23848642 
H      34.12621790      31.85113090      23.05177742 
H      33.50127667      32.11611960      24.71082794 
H      36.06307997      28.21430608      21.35777907 
H      35.14216885      29.39968786      22.32316263 
H      36.83839785      29.00191232      22.77294363 
H      31.78563341      30.07707648      34.17784474 
H      33.14949542      30.70022719      33.19662850 
H      31.86498242      31.81848215      33.76008232 
H      21.33748823      11.70046894      23.92417483 
H      20.70775553      12.95454861      22.80740163 
H      21.76087453      11.64331833      22.17594947 
H      33.32370551      17.19842548      19.26932832 
H      34.24576797      18.34037672      20.30378760 
H      32.95989430      17.31730307      21.01480626 
H      27.34412265      12.59126499      17.24193160 
H      28.99111257      12.15499530      17.81679562 
H      27.72110006      12.62230251      18.99604984 
H      13.48589689      30.28224328      30.47471691 
H      14.20524038      28.65471904      30.18950597 
H      14.87396743      29.71635657      31.46208640 
H      32.84922842      20.00866495      31.90389660 
H      33.12249892      20.12693666      30.14116759 
H      33.96140548      21.25695676      31.24432258 
H      18.96505299      24.54512670      13.19116589 
H      18.10502492      26.02743287      13.72738464 
H      18.83716648      25.96012575      12.08488858 
H      15.91428089      28.98246355      16.92364023 
H      16.13720243      28.78133830      15.16230831 
H      14.93743544      27.77094787      16.04027457 
H      26.91753871      10.55026944      22.68820967 
H      25.65109707      11.65752541      23.33205261 
H      25.67098568      11.23811103      21.59547709 
H      14.49309560      34.20514469      26.03873291 
H      14.77392175      33.18942574      27.48743626 
H      15.23566512      34.92671947      27.49503120 
H      14.87767045      21.52115423      33.44299380 
H      14.33919707      20.03715554      32.58454665 
H      16.06861339      20.26947148      32.96300068 
H      21.89806756      15.97722922      13.52686801 
H      22.68437447      14.99630525      14.79776437 
H      20.99268292      14.63880303      14.29582241 
H      22.28200844      29.74664339      13.25103817 
H      23.23967235      30.01935949      11.75735968 
H      22.75591209      28.35242613      12.22695238 
H      19.21704096      20.21394891      12.82503696 
H      20.61373248      21.01105380      12.02775702 
H      20.88339951      19.90597689      13.40173343 
H      22.56911834      33.20871678      14.84709646 
H      20.83481967      33.67507589      14.75793851 
H      21.61601085      33.41916454      16.35325067 
H      24.32790838      36.28823906      28.08219937 
H      25.28368876      35.18021682      27.03963752 
H      23.64986140      35.70283768      26.52925566 
H      11.61812893      17.40340896      30.66579168 
H      12.04878299      19.10492842      30.30427252 
H      11.02220152      18.18135474      29.16751299 
H      26.02029105      35.08755175      21.33971884 
H      25.79467742      35.24477876      23.11832179 
H      26.77058149      33.89458231      22.45457151 
H      29.71740320      22.16729418      11.72789844 
H      29.47907132      20.56911931      10.95612171 
H      28.57677446      21.99808328      10.36194594 
H      15.41284213      21.26661350      15.40371817 
H      16.51778877      22.34497358      14.47889730 
H      17.19264807      21.04054537      15.50578221 
H      28.32309213      15.81156144      15.33820549 
H      27.91907355      15.33941909      13.65357783 
H      28.27983028      17.05741427      14.04644935 
H      15.28931413      12.25734488      30.36943686 
H      16.64401133      11.68237006      29.34739491 
H      16.87935451      11.88723065      31.11234597 
H      30.84040236      13.53988502      30.58341964 
H      30.05607495      14.66485691      31.73865479 
H      29.62815349      12.91763725      31.74433268 
H      27.08052434      35.73544130      29.26068207 
H      26.37260151      36.07654933      30.86686705 
H      28.15012575      36.08736162      30.65528972 
H      32.66506087      28.90340486      17.25108689 
H      31.51064906      29.90664038      18.17635292 
H      33.27748334      30.22943453      18.29309788 
H      26.70862391      15.92601529      34.15316655 
H      25.28467525      15.43400698      35.12509603 
H      26.51450156      14.21190730      34.64956721 
H      12.83565724      29.66768479      21.15529783 
H      13.27843601      31.12770770      20.21327947 
H      12.11461308      29.94767739      19.53172470 
H      12.36792627      27.51275399      25.86958346 
H      11.22856147      26.43848972      26.73147062 
H      12.03877033      27.78211785      27.60760573 
H      36.13587676      20.36979606      25.67366771 
H      37.11901689      20.22907567      27.16578923 
H      36.36791650      18.77279148      26.45021069 
H      29.53480849      25.57405722      14.61018843 
H      31.29473518      25.24117546      14.62195485 
H      30.19690794      24.25370662      13.60288321 
H      19.80627541      23.83756116      35.75489621 
H      19.07858550      25.05388009      36.86258139 
H      18.02927887      23.94187523      35.92375109 
H      36.85392208      25.63739211      25.64459505 
H      37.50968112      24.19226562      26.48488723 
H      36.26751272      24.00262379      25.20506993 
H      19.91331994      19.74937050      36.94701649 
H      18.90919874      18.77247669      35.82793504 
H      20.69028739      18.61869157      35.78308386 
H      32.26017758      24.21903822      32.62220775 
H      33.05368228      25.70087162      33.26519586 
H      31.25830967      25.56458431      33.26152635 
H      25.82499131      19.25388633      11.63207722 
H      25.05541290      17.70549111      12.11836297 
H      24.40587065      18.62902530      10.71762506 
H      14.84535516      33.42525179      21.77962783 
H      15.72573472      34.53449826      20.68075601 
H      15.73509031      32.76382207      20.37106925 
H      15.23726802      26.09146424      32.93846847 
H      14.36926226      24.79731652      32.03697316 
H      16.10143270      24.59238529      32.45662616 
H      11.11711465      26.80385386      20.72259700 
H       9.73965908      26.94591214      21.86987383 
H      10.71626939      28.38879327      21.45997915 
H      22.36962709      11.73816551      17.39751325 
H      22.19026983      13.15172581      16.32395059 
H      23.22496834      11.76736751      15.81778052 
H      12.49703650      23.31137288      17.37145772 
H      12.05611950      25.01735970      17.04333695 
H      13.77086771      24.48265631      16.93077978 
H      22.55656395      11.93017267      27.71127444 
H      21.24933921      11.14902988      28.66980760 
H      20.84159410      12.14173389      27.22444514 
H      16.46638842      15.07642377      32.40041394 
H      17.33799171      15.77388033      33.80545181 
H      15.54180355      15.84227201      33.74130712 
H      13.33104297      16.35819798      21.27921156 
H      13.70895694      14.85037362      20.36793537 
H      13.67937061      14.83877548      22.16120309 
H      12.60673710      13.90427254      26.45958997 
H      12.72153957      15.50824635      27.26421845 
H      12.40023587      15.41193786      25.50395003 
H      27.72798235      32.70964535      15.92865113 
H      26.96619482      33.99240693      14.92098773 
H      27.21901089      34.24478873      16.68187639 
H      31.83610499      14.03699993      24.85404584 
H      32.11270933      13.53332709      26.55063091 
H      31.66586906      12.30752005      25.32193396 
H      18.19051412      12.93382353      18.13485232 
H      17.96273264      12.84206696      19.91201294 
H      17.73160293      14.40107960      19.06857282 
H      29.11313260      34.90047122      24.92277233 
H      29.16655899      34.79134679      26.71535647 
H      29.76459205      33.43320516      25.72147686 
H      12.02160030      23.32788817      28.77627647 
H      11.15827502      21.75743124      28.86743090 
H      12.77225759      21.94819593      29.63416381 
