699
Properties=species:S:1:pos:R:3 i=81 optimized=T E=-11290.3358633853 pbc="F F F" jobid=279_84-Ag-50_2-000005-PBE
Ag      33.14186887      25.46061781      25.98263392 
Ag      31.92883137      29.32199080      21.76605769 
Ag      34.37021481      28.16874114      25.53561446 
Ag      29.86714962      15.19107203      19.63680619 
Au      34.06575568      19.56002734      23.76059383 
Au      27.52182800      23.59198881      12.81384506 
Ag      18.20172152      33.17998340      27.97173182 
Au      28.55796285      30.63024141      18.07035281 
Au      24.95414023      21.20005103      23.23147256 
Au      26.31901318      23.22975496      24.95746933 
Ag      28.18991064      25.07320061      23.66248056 
Au      23.84117540      21.59971022      29.02147347 
Au      23.38568934      27.89570359      26.94711123 
Au      26.91792937      23.03644607      21.98208721 
Au      22.40776614      19.48731775      27.37008352 
Ag      27.25208868      21.10819716      26.75694348 
Au      22.01044296      21.44258730      22.70550946 
Au      21.02042746      23.53201310      20.83072953 
Ag      27.66916687      25.30695242      26.59042985 
Au      19.95900518      24.06558009      26.72841763 
Ag      25.48094565      21.01968328      20.33222885 
Au      24.31799218      25.72007454      28.80314852 
Ag      23.86794091      27.68016376      24.06704952 
Ag      26.20320745      27.61590946      27.62211432 
Au      20.93385340      21.90680918      28.41218193 
Au      22.89628694      23.71127563      27.19546834 
Au      21.47115579      21.66035021      25.58940521 
Au      19.54986021      19.78286210      26.87924831 
Ag      25.87166688      19.08120116      25.06141652 
Au      25.25339382      23.58671459      30.73420379 
Ag      22.97449186      25.29389982      19.54081785 
Ag      20.99950471      27.93764297      23.52648472 
Ag      26.68434442      27.37845086      24.71376662 
Ag      22.54599230      21.27814225      19.82075990 
Ag      21.94465508      25.85269562      25.37551765 
Au      27.16088076      25.42599492      29.47000845 
Ag      20.11735124      19.63461735      24.05208792 
Au      25.86868550      25.04000615      20.17719966 
Au      23.49359723      19.15426549      21.60472860 
Ag      22.31961322      23.92680246      30.03654863 
Ag      21.07217068      17.41082553      25.85113600 
Au      21.53147272      27.56319495      20.60315884 
Au      24.39943685      27.37948308      21.24729752 
Au      24.43992044      23.03438572      18.47943027 
Ag      28.62818913      23.13231526      28.46575207 
Ag      18.60422481      21.94917719      25.13621523 
Ag      26.71524879      21.23105948      29.64584984 
Au      22.41649632      30.04021586      25.08420284 
Ag      27.26381225      27.07935371      21.78571890 
Au      21.76308118      19.67123139      30.17334579 
Au      18.52266566      26.38468909      27.74591745 
Au      23.15904632      21.74928236      31.87790511 
Ag      21.54564182      23.34468981      17.90033609 
Ag      17.06244134      24.29405314      26.22988147 
Ag      27.41822579      22.76401302      19.05183130 
Ag      23.91610209      17.13299451      26.33565891 
Ag      23.32166946      17.40159736      29.21074136 
Au      25.26230390      29.77489826      25.72058509 
Au      21.64002598      17.22838179      22.92392918 
Ag      28.78246993      18.78734156      25.66764292 
Au      22.87673243      29.77633599      22.22199143 
Au      25.35914281      25.33665698      23.08113296 
Ag      20.06725704      25.59524778      18.94209486 
Ag      29.57455250      27.15228851      25.31503759 
Au      19.32210915      24.26523433      29.59503820 
Ag      17.96764924      22.20245433      27.97576503 
Ag      20.01426589      28.44045186      29.40115939 
Ag      23.73461874      25.82808987      31.66251282 
Au      20.92728285      26.35275214      31.16934983 
Au      26.38053766      18.95270196      22.14057781 
Au      24.59835131      19.40914729      30.91815275 
Ag      20.41297138      17.56760894      28.77108241 
Ag      28.87147325      24.78918256      20.70279752 
Ag      19.55127854      30.20025916      24.56493361 
Ag      25.75138740      29.54032752      22.80117423 
Au      24.88581618      27.12444520      18.27639357 
Ag      28.41787666      20.74683836      20.86757512 
Au      29.08634715      27.41273889      28.27681789 
Ag      30.06273739      20.88620568      27.34779030 
Ag      18.12610590      23.87158999      20.32836485 
Ag      17.68999921      19.64376648      20.68775593 
Au      25.67215684      27.72914324      30.52668570 
Ag      28.14327801      23.33922037      31.32532344 
Ag      21.94082152      30.19193617      28.02751739 
Au      21.82695421      24.10495948      32.90530096 
Ag      18.67560240      27.91171177      20.08315836 
Ag      16.30129694      21.95998481      21.68297899 
Au      30.54491714      25.10256234      27.12954921 
Au      23.42176096      23.50103765      24.31722661 
Ag      20.01893439      29.99610735      21.63247104 
Au      16.61717277      20.05591788      26.45484795 
Au      26.80637596      17.03271941      26.85694138 
Au      29.89482487      25.25797128      30.04659482 
Ag      17.61484663      28.45251471      25.87775365 
Au      16.25563947      26.38210391      24.33741502 
Au      28.55286014      29.08716829      23.34590856 
Ag      27.81145241      26.81414694      18.97310216 
Au      24.09913275      19.04077937      18.72172334 
Ag      27.40002184      16.77973194      23.99211250 
Ag      26.95972157      18.71601138      19.23572565 
Au      25.95016481      21.36853558      32.55928542 
Au      12.46564549      18.90317985      21.86820706 
Au      23.00130641      21.04015001      16.91146336 
Au      26.34017419      29.11342562      19.85062906 
Au      20.91396652      19.85726356      32.77545798 
Au      26.15296794      17.19379241      29.69830597 
Au      29.22199253      18.68708013      22.78611949 
Au      27.56702626      29.65415181      29.33024040 
Ag      15.15099311      22.40385778      27.41964751 
Au      26.05445458      20.79085559      17.30260851 
Ag      24.57787961      23.74866021      33.52846297 
Ag      23.54124133      25.08298585      16.45777581 
Ag      17.63607161      17.95509600      28.25652308 
Au      19.10365210      30.41864312      27.44412549 
Au      23.50117485      29.46301748      19.34687424 
Au      22.43693006      25.58249268      22.49290697 
Ag      16.15158103      20.21641760      29.35994126 
Ag      27.45131390      19.08485065      31.47104332 
Ag      29.16597000      28.87005346      20.49779152 
Ag      16.46823456      24.48967923      29.05440551 
Ag      31.93967482      22.78917259      26.09812111 
Ag      16.58770772      21.71812660      18.85479845 
Ag      24.92363113      31.54022247      20.76698973 
Au      21.97769020      31.70964200      20.31449430 
Ag      20.65076480      25.34215865      16.08568443 
Ag      24.36977155      31.88200708      23.86291180 
Au      20.63186661      29.62637254      18.77066176 
Au      23.15671885      14.94658858      21.51854888 
Ag      30.32108671      22.50235374      19.58495860 
Ag      24.98934453      22.82870974      15.49402760 
Au      18.68197187      23.63306237      17.36611390 
Au      28.85825828      20.56198509      18.00020105 
Ag      17.50766950      22.45145763      30.98682796 
Au      17.18388512      28.63526908      28.73137561 
Ag      27.84424875      16.69736703      21.08558079 
Ag      15.63164088      26.75963426      27.16092802 
Au      18.99576908      15.67842436      27.13762764 
Ag      19.63945709      15.42931444      24.06336544 
Ag      18.00521538      26.67620273      30.77093034 
Au      20.23267516      15.45950359      21.24729528 
Ag      27.34600141      31.47383793      24.31445707 
Ag      24.94868882      15.12948505      28.23690587 
Au      23.94142727      23.25930457      21.40511158 
Ag      20.07728071      21.22534059      16.43873842 
Ag      27.84451250      22.75203192      15.93245978 
Ag      31.32126889      20.38951242      21.65051244 
Au      26.93805578      31.73948065      27.52069853 
Au      25.62735467      14.91129463      25.21488930 
Au      28.72984861      16.15823694      28.79115111 
Au      25.98777130      14.89613447      22.29100840 
Au      32.47293552      22.54476309      23.24990527 
Ag      25.63200410      30.40960443      31.45902659 
Au      22.86111157      30.73142687      30.78307089 
Au      24.48180404      16.84477920      31.95078951 
Au      31.28368843      17.89728307      24.70267996 
Au      17.05863041      26.00254541      18.58976576 
Ag      31.52306660      23.00415133      28.88794027 
Ag      29.40196967      15.96032018      25.91814963 
Ag      15.59200450      29.22843849      23.97218114 
Au      16.13520060      28.96207696      21.04903617 
Ag      17.05105780      31.24738966      25.57648978 
Ag      29.31514619      24.71974989      17.85440388 
Au      30.71243874      18.01059231      27.59217326 
Ag      18.90276760      17.79544881      31.22871420 
Ag      23.81940385      19.73698971      33.71599162 
Ag      18.06277340      30.68669424      19.63610395 
Ag      17.50775751      30.99584928      22.61673830 
Au      14.25426415      27.14357856      22.43172565 
Au      32.59185056      19.97180228      26.39023530 
Au      24.83349783      25.56197648      25.94994258 
Au      32.89898319      26.65142991      23.10847217 
Au      24.80855629      19.96168356      14.95696008 
Au      20.14778719      31.24494365      29.99048529 
Ag      31.71200440      27.75541742      27.14364144 
Au      23.67505891      28.48635267      32.54731216 
Ag      29.98609264      15.93756853      22.96353700 
Au      22.61264287      17.04787245      34.51302654 
Ag      13.92197963      19.40615695      27.74047095 
Au      24.10810870      27.76384223      15.58926237 
Ag      15.69160605      17.54908988      30.66546679 
Au      25.83089956      25.50672577      14.70047186 
Ag      28.53760418      30.56961935      32.08554589 
Ag      22.66666039      30.06546447      16.70765106 
Au      22.21939879      21.92138893      35.22848940 
Au      31.34911214      28.20388240      31.25617667 
Au      19.36168873      14.17870028      29.66059595 
Au      22.11894427      25.26712494      13.07076818 
Ag      16.19379525      15.22050706      27.99489547 
Au      25.53987334      33.64624085      29.33048360 
Ag      26.75749683      14.61416964      30.99761247 
Ag      28.38746295      13.59631004      23.90159218 
Au      16.15714354      17.16991490      19.39032810 
Ag      16.08126349      17.29900442      23.29093759 
Au      20.71596600      15.35212274      17.71400331 
Au      11.84211483      24.63978744      22.96324591 
Au      14.64050614      30.26661781      27.04407148 
Au      24.38197195      21.34649358      26.11677687 
Ag      14.91307470      19.89051772      20.30382144 
Ag      25.46674013      30.92175780      17.89653129 
Au      28.65274446      20.40593165      14.36814368 
Ag      30.15075405      26.90851487      22.43986459 
Ag      30.99603821      24.84615512      24.22549100 
Au      31.77976559      24.74562329      21.39439424 
Au      20.50338521      23.79250836      23.85178685 
Ag      25.31635897      14.85016598      16.10795152 
Au      30.61790871      29.84430028      25.16836719 
Ag      25.76014313      23.39082192      27.82644853 
Ag      26.93462646      27.62133354      16.36907186 
Au      20.72206347      31.45031891      33.07069175 
Au      17.69473040      24.02190561      23.29007879 
Au      22.97962953      19.27479425      24.49249361 
Ag      27.77898413      20.94306396      23.84020458 
Au      19.58108923      25.86906828      21.94044986 
Au      24.94734688      30.91037318      14.86277567 
Au      25.25420221      19.29501998      27.92804483 
Ag      19.07558681      26.12812469      24.85459638 
Ag      20.53954107      28.14825148      26.41455141 
Au      21.42445684      26.06721388      28.27026267 
Au      29.11811156      23.00592737      25.55350992 
Au      19.15305758      21.71449339      22.18451287 
Au      24.53576901      17.00841439      23.44120721 
Au      22.89688564      28.11125586      29.81719038 
Ag      20.64572396      19.41428308      21.11572601 
Au      20.32472014      22.17848178      31.26005269 
Ag      24.81046666      30.05792835      28.69290983 
Ag      18.07758150      28.23290885      22.97105295 
Ag      28.17181323      18.97944952      28.58984346 
Au      18.96727479      20.13359230      29.70354887 
Au      29.74145255      22.71676367      22.58356556 
Au      19.57029883      21.52823287      19.26019174 
Ag      18.24287861      17.73374216      25.30055923 
Au      15.73731935      22.15646242      24.55811802 
Ag      16.71018147      26.13459328      21.42642942 
Au      26.39142182      24.82893749      17.33234189 
Au      28.06392403      29.40664645      26.29233503 
Au      17.22142729      19.87313415      23.55155465 
Au      18.79253729      17.64190877      22.44864563 
Ag      30.63473595      20.69752215      24.45820599 
Au      22.08529921      27.34451010      17.64742765 
Ag      21.08418741      19.30327061      18.30414096 
Ag      22.17457379      17.12747288      19.84573267 
Ag      21.98937716      15.34933059      27.64232452 
Au      19.00774152      24.42439376      32.45674345 
Ag      26.51557784      25.57567476      32.36461051 
Au      14.81082135      24.25155562      22.78336963 
Ag      29.57779002      20.82232678      30.21055464 
Au      23.81480681      31.98562111      26.73609727 
Au      22.51047188      15.12905391      24.83294059 
Ag      24.97793082      16.93291666      20.45308586 
Ag      28.46426914      27.68405772      31.22921632 
Ag      19.22159964      17.45307170      19.53106079 
Au      27.76717224      31.11997798      21.51677494 
Au      15.29164024      24.10795166      19.95535432 
Ag      21.64594996      17.23503041      31.56612414 
Ag      21.34921621      32.08263611      23.15244838 
Au      14.22743189      24.47958688      25.49773512 
Au      22.17400809      22.98174039      14.95476095 
Ag      30.64419972      26.68664972      19.50574388 
Ag      18.23904871      19.50605099      17.83579140 
Au      22.77185654      18.21551816      16.34922842 
Au      15.55561066      17.49411903      26.16932754 
Ag      30.20470614      30.04724730      28.08194541 
Au      29.76729385      18.30206234      19.90007308 
Ag      13.64343874      21.59309539      22.57038172 
Ag      30.37496107      17.70724231      30.75059202 
Ag      26.76230281      15.89323756      18.53222171 
Ag      20.77996746      32.28094066      26.21323312 
Ag      19.28027511      27.79952774      17.13283913 
Ag      25.73910005      17.88189485      16.70266128 
Ag      14.45266677      19.56919889      24.50015151 
Ag      19.10865765      33.17888567      20.93490092 
Au      23.83621206      21.98403087      12.51532755 
Ag      34.55527963      22.75497632      27.39350694 
Au      29.16480742      32.85056277      29.30678139 
Ag      19.29646224      31.13022129      16.65877464 
Ag      23.75058349      14.97140756      18.78056447 
Ag      14.07587093      27.06274858      19.45393050 
Ag      20.91930572      26.68786148      34.18818707 
Au      19.57221333      28.52324818      32.22475368 
S      20.77530229      15.93607706      33.52730705 
S      28.47778625      32.47380013      19.56682565 
S      24.21886486      23.00014187      35.88185765 
S      24.41065614      18.16203346      35.56439500 
S      12.36118207      18.23252014      24.11793585 
S      32.35047667      17.44223532      29.34334584 
S      31.46760810      14.71939566      21.39707500 
S      29.82687308      19.32399007      16.08867780 
S      28.23839221      21.78360974      33.31070418 
S      23.03530327      27.81573464      34.76893599 
S      13.51413306      30.20117065      24.98118334 
S      16.28272246      18.11514016      17.21543361 
S      32.73297628      23.19250657      19.75750378 
S      26.67464169      30.85057453      33.66040233 
S      22.81954102      32.41912851      32.60341896 
S      17.15629488      31.77686332      17.58703642 
S      11.28466013      22.36146769      22.84873947 
S      25.12396056      13.10390622      26.78735690 
S      33.69365546      29.17510396      27.60592134 
S      28.46064787      26.53226926      33.51364505 
S      23.87865324      24.24972017      11.84952676 
S      27.51223280      25.94803221      12.95748577 
S      19.12348133      33.44563282      30.19251158 
S      28.90256494      17.46099305      32.65737470 
S      21.24180948      34.09935136      24.60588705 
S      31.03905850      32.38803121      27.95653329 
S      28.95026924      29.05490645      16.33937807 
S      33.53901628      17.26638857      23.90037239 
S      34.78467782      21.80243823      23.57728036 
S      19.28014750      13.61186460      25.71217271 
S      20.91158567      33.68520362      19.38712760 
S      12.54481175      19.50153322      19.58764816 
S      18.67823802      30.36543579      33.52429433 
S      31.80270289      31.08324007      23.45963492 
S      35.20484756      27.32827849      23.43647664 
S      30.94391025      30.49210141      31.63079174 
S      23.02161452      13.24587169      23.31745854 
S      32.07560409      19.08265028      19.64048277 
S      28.65334191      14.59154775      17.62303397 
S      15.59562202      30.44542231      29.19778419 
S      31.65332265      21.87509396      31.09752279 
S      20.29509618      26.49958572      13.89726656 
S      17.05965844      27.00893974      16.35622051 
S      27.34396110      12.93990922      21.78897040 
S      16.77424408      33.67281164      26.09016131 
S      15.15894357      21.69873876      31.12675730 
S      21.10271535      16.57299627      15.71049915 
S      24.61367662      29.00092804      13.52198399 
S      19.98583835      22.06294016      14.10473958 
S      21.17252620      31.28735341      15.15724683 
S      23.56132122      34.00230069      28.09384014 
S      13.79782204      17.37357744      29.16050698 
S      24.50087582      33.61197821      22.07753369 
S      27.64664342      21.27663834      12.41664684 
S      16.38036254      23.00352182      16.70383256 
S      26.03183963      16.56998041      14.59516263 
S      17.05608864      14.43208393      30.14051282 
S      28.79813155      13.96049641      29.86001949 
S      27.44605743      33.63652983      30.73213629 
S      32.58041329      28.25689442      19.67387176 
S      25.04401614      14.61954649      32.71466931 
S      14.38666626      29.48197988      19.38846230 
S      13.31819232      25.79748985      27.31813862 
S      34.54465035      20.38797488      27.81415026 
S      30.27649105      23.53994112      15.92206891 
S      18.67404651      25.69699817      34.51658381 
S      35.32984690      25.00392765      27.05054640 
S      20.15546532      20.80110171      34.87669493 
S      32.03083702      25.95835896      31.02492961 
S      23.73082672      19.64257684      12.80861670 
S      17.06366363      33.39545260      22.20751932 
S      15.56247057      26.16497994      30.66300109 
S      11.87104482      27.00116422      22.95475326 
S      24.47909464      13.02894124      17.43048676 
S      13.07834400      24.85253997      19.18023101 
S      21.64091585      13.62223371      29.41484789 
S      16.95661145      17.68014077      32.72728139 
S      15.76580653      15.82909049      21.30477789 
S      14.89409887      15.17675332      25.87789409 
S      25.32114783      32.78097319      16.24194865 
S      29.81163765      13.51134092      25.85191938 
S      20.08742255      13.81818005      19.41658789 
S      27.08762605      33.47950868      25.75238379 
S      12.81017861      21.55184727      27.31172329 
C      21.28332410      14.18461258      33.33170534 
C      30.23254984      32.92390368      19.87397425 
C      23.67402291      24.45676576      36.85865103 
C      23.77306619      18.82804253      37.15417434 
C      10.93822615      19.13280019      24.84893970 
C      32.61357915      15.63068809      29.19725355 
C      31.33381148      12.89151159      21.54972486 
C      31.53872570      19.95803658      15.91741055 
C      28.09521885      22.73743945      34.87331681 
C      22.65160483      29.35975796      35.68046232 
C      13.38843909      31.94316354      24.41332002 
C      16.88818451      16.75481899      16.13681896 
C      33.26195372      24.20482074      18.32324837 
C      26.46186406      32.62155975      34.08187139 
C      22.47447000      34.06917979      31.88781893 
C      17.31347191      33.61021046      17.59561477 
C      10.51930571      22.25293391      21.18143896 
C      26.66841502      12.22676962      27.23779730 
C      34.68849974      28.33324907      28.90186443 
C      27.80110338      27.63796618      34.82291353 
C      23.18649518      24.20041343      10.14458798 
C      26.69674600      26.55864372      11.43562260 
C      17.65494635      33.26635917      31.27994686 
C      29.70779963      18.32729295      34.06377813 
C      19.73035139      35.09698126      24.31429032 
C      32.51491025      32.56439166      29.02981154 
C      28.87517380      30.01105417      14.77232582 
C      34.43747122      16.65004679      25.37808379 
C      35.61794794      21.94786937      21.94921510 
C      17.67849804      12.76207635      25.43582651 
C      21.75003994      35.16452147      20.07991612 
C      12.45017896      17.93329958      18.63707429 
C      18.71324852      29.83259813      35.28070089 
C      33.49020934      31.47249798      24.05907805 
C      35.53378349      28.73915116      22.30968865 
C      31.71013139      30.76537551      33.28245397 
C      21.51221056      12.26851466      22.98153825 
C      33.20777009      17.73777291      20.15399550 
C      28.27314528      12.81207846      17.89512620 
C      14.34892486      29.76515141      30.35940802 
C      33.03459513      20.67277056      31.19281175 
C      18.83208644      25.65801432      13.17456683 
C      15.92801721      28.44676433      16.28452687 
C      26.26201191      11.50218266      22.15681037 
C      15.17035356      34.03439625      26.91414910 
C      14.98010976      20.83260140      32.73786957 
C      21.87143510      15.39172906      14.53863407 
C      23.04470272      29.26571287      12.61223824 
C      20.27075296      20.65292946      12.97038921 
C      21.61697639      33.06518574      15.31772417 
C      24.00972746      35.36786589      26.95558364 
C      12.34966988      17.69991699      30.25397696 
C      26.07216411      34.54595783      22.22363729 
C      29.00106683      21.12525939      11.17956881 
C      16.41717739      21.79222150      15.32958520 
C      27.82298918      16.27772568      14.31430072 
C      16.45317541      12.70089515      30.30264435 
C      30.00326391      13.91544813      31.24751728 
C      27.82085104      35.42814876      30.92290477 
C      32.51008878      29.54193354      18.36080097 
C      26.02506949      14.88241974      34.24654661 
C      13.02138090      30.23667692      20.35486410 
C      12.11611115      26.98397292      26.60900951 
C      36.07540977      19.81955831      26.97227368 
C      30.57875390      24.82671272      14.64896841 
C      18.82128708      24.50705041      35.90816042 
C      36.58400215      24.76668317      25.72534415 
C      20.04861064      19.45944072      36.12022940 
C      32.01122873      25.31988312      32.74405065 
C      24.94392498      18.88857938      11.66225702 
C      15.70165883      33.48280743      20.97655035 
C      15.11908077      25.36411555      32.25378295 
C      10.85209861      27.38103832      21.47477455 
C      22.99695939      12.34871488      16.58022598 
C      13.01636383      24.55765856      17.36909522 
C      21.60391119      12.08114230      28.41629327 
C      16.92100558      16.01090040      33.48991293 
C      13.99252217      15.36193222      21.21921559 
C      13.11030140      15.10159311      26.29171733 
C      27.01457115      33.38541546      15.86886515 
C      31.53528911      13.26489446      25.26677470 
C      18.30865013      13.47441077      19.11617436 
C      28.72539729      34.30065697      25.82934353 
C      12.02144596      22.06662856      28.88834598 
H      22.32956887      14.10489615      33.01556493 
H      21.14179517      13.67471007      34.29127631 
H      20.63402875      13.73849242      32.56759285 
H      30.66629061      33.30166305      18.94136579 
H      30.23679934      33.71541634      20.63296165 
H      30.80965339      32.06881185      20.24258967 
H      24.56975616      25.04603123      37.08851678 
H      22.97241606      25.08053540      36.29484740 
H      23.21216766      24.10993828      37.78925469 
H      23.44579006      18.00125888      37.79360404 
H      24.60752398      19.35565385      37.63219143 
H      22.95349558      19.53749018      36.99664070 
H      11.04497185      19.08161208      25.93929340 
H      10.92478753      20.18235655      24.53630744 
H      10.01491470      18.63278481      24.53598084 
H      33.38071591      15.46434328      28.43159820 
H      32.97314062      15.24860085      30.15969973 
H      31.69145057      15.11451249      28.90772819 
H      30.29753361      12.56991288      21.70242451 
H      31.72878403      12.43992445      20.63283378 
H      31.94508445      12.57144875      22.40128037 
H      31.54141271      21.04944980      15.81678986 
H      32.08004282      19.65927485      16.82450385 
H      31.99041105      19.49034947      15.03539342 
H      27.48622058      22.17518555      35.58902078 
H      29.11253917      22.86433259      35.26346013 
H      27.65102496      23.72347702      34.69122518 
H      21.95736973      29.99896536      35.11708300 
H      22.21510839      29.08942919      36.64931243 
H      23.59198339      29.90158567      35.83751497 
H      12.72349915      32.49407648      25.08737036 
H      14.37150268      32.42590877      24.37189988 
H      12.94885936      31.91751984      23.40878572 
H      17.03281649      17.17762720      15.13529412 
H      17.83958609      16.34453258      16.49372280 
H      16.12785454      15.96722759      16.09644462 
H      32.39418715      24.57847732      17.76559785 
H      33.87687149      25.04090491      18.67328223 
H      33.85407277      23.55214571      17.66970022 
H      26.81155877      33.26676076      33.26925314 
H      25.39694867      32.80855491      34.26327833 
H      27.03722803      32.82667676      34.99240073 
H      21.61392933      34.04269818      31.21031839 
H      22.27741341      34.75886684      32.71687792 
H      23.37328634      34.38218579      31.34049476 
H      16.46738343      34.02482401      18.15558350 
H      18.25142471      33.93856760      18.05664256 
H      17.26818788      33.96537140      16.55993027 
H      11.14953464      22.73185094      20.42439420 
H      10.39935833      21.18992671      20.93975625 
H       9.54005406      22.74290027      21.21636164 
H      27.48882800      12.91656059      27.45565610 
H      26.46034387      11.62311043      28.12958355 
H      26.95734727      11.57175387      26.40715727 
H      35.63603733      28.87448043      29.00572079 
H      34.12806260      28.37841187      29.84422430 
H      34.89035965      27.28863508      28.64173775 
H      27.73479833      27.05928571      35.75182336 
H      28.48897326      28.47961078      34.96326075 
H      26.81190837      28.02922593      34.56513664 
H      23.08676873      25.23318015       9.79072170 
H      23.89410091      23.65594200       9.50891204 
H      22.21108061      23.70617244      10.12534323 
H      25.82143034      25.94630848      11.19499398 
H      26.38528047      27.59312693      11.62597234 
H      27.42584833      26.52378864      10.61803579 
H      17.99862631      33.07063615      32.30262797 
H      17.10089210      34.21185166      31.24547947 
H      17.00952553      32.44790342      30.94414018 
H      30.66688855      17.84679393      34.28486005 
H      29.85640433      19.38907361      33.83933403 
H      29.04263541      18.23714171      34.93093365 
H      18.82857086      34.48208751      24.24803668 
H      19.61849265      35.80168987      25.14641965 
H      19.86035611      35.65191959      23.37734701 
H      32.34185952      32.10837243      30.01019916 
H      33.33993653      32.04561944      28.52652152 
H      32.74470596      33.63033966      29.13648517 
H      29.66590476      30.76953090      14.77325071 
H      29.05014731      29.29947836      13.95586550 
H      27.89345518      30.48257773      14.63660192 
H      34.13585467      15.60555609      25.52343983 
H      35.51459189      16.69782101      25.18218580 
H      34.18375166      17.23543994      26.26847311 
H      34.95190136      21.64444878      21.13489714 
H      35.88789803      23.00295529      21.81949852 
H      36.52118182      21.32819694      21.96333878 
H      17.33076564      12.33796869      26.38545077 
H      16.91620062      13.44234669      25.04462956 
H      17.85188243      11.95146238      24.71744731 
H      22.68149047      35.31498348      19.52187461 
H      21.08878659      36.02760667      19.94281219 
H      21.98969283      35.02959271      21.13997572 
H      12.61742584      18.18999245      17.58409806 
H      13.22115893      17.22205378      18.95233572 
H      11.45359920      17.49578713      18.75979060 
H      18.56526716      30.71647402      35.91160165 
H      17.88791847      29.12524011      35.42344248 
H      19.65724572      29.34114153      35.53498173 
H      34.01875675      30.57450736      24.40801814 
H      34.05112920      31.94279698      23.24286027 
H      33.39657254      32.17638105      24.89428343 
H      35.52357454      28.36335622      21.28039113 
H      34.77862415      29.52602694      22.40723947 
H      36.52372416      29.14078785      22.55593811 
H      31.30506825      30.07589794      34.02894753 
H      32.79408068      30.62875791      33.19872445 
H      31.49094356      31.79789644      33.57881318 
H      21.25647945      11.71592046      23.89316774 
H      20.67347610      12.91669347      22.69859676 
H      21.73491596      11.57280460      22.16393727 
H      33.26062856      16.99383644      19.35081354 
H      34.19778054      18.18085603      20.31819976 
H      32.87580249      17.24936323      21.07479241 
H      27.48611356      12.51161652      17.19307509 
H      29.18477670      12.23566668      17.70101913 
H      27.93186727      12.63135579      18.92038395 
H      13.45120883      30.39122988      30.31489100 
H      14.11018635      28.72291119      30.12192875 
H      14.78933138      29.81304055      31.36284022 
H      32.85909011      20.01617296      32.05337859 
H      33.12273757      20.06758051      30.28634966 
H      33.96575299      21.23179787      31.34189661 
H      18.93185064      24.56815511      13.24022414 
H      17.95816633      25.98627095      13.75153179 
H      18.72998317      25.96688119      12.12843418 
H      16.06501681      29.12553342      17.13109151 
H      16.13997530      28.98946422      15.35533985 
H      14.89357338      28.08318388      16.27330328 
H      26.90071078      10.62786342      22.32688141 
H      25.63470297      11.68904768      23.03463329 
H      25.62098362      11.33162870      21.28369008 
H      14.43226785      34.25633440      26.13432406 
H      14.82168410      33.18432850      27.51190312 
H      15.29147241      34.91513059      27.55436023 
H      14.75051754      21.58575777      33.50081816 
H      14.15105873      20.11859458      32.66813253 
H      15.88898558      20.29075709      33.01651844 
H      22.07517809      15.94380137      13.61342420 
H      22.81255954      14.98683567      14.93321714 
H      21.16240881      14.58034110      14.33934209 
H      22.29810210      29.76467500      13.24078010 
H      23.26828365      29.88286967      11.73419302 
H      22.67466224      28.28067561      12.29984013 
H      19.28891252      20.24439822      12.70097758 
H      20.78227391      21.01000718      12.06853164 
H      20.87600433      19.87150065      13.43978383 
H      22.60782307      33.21616702      14.87292485 
H      20.87084280      33.65501163      14.77351803 
H      21.64008835      33.37833900      16.36721410 
H      24.05172465      36.29541171      27.53764443 
H      24.97521438      35.17045037      26.47498446 
H      23.21654668      35.42707849      26.19888810 
H      12.29228338      16.91194307      31.01362635 
H      12.43674357      18.67614300      30.74111812 
H      11.44188183      17.67955777      29.63956859 
H      26.26539746      35.05433554      21.27215915 
H      25.95936523      35.28425778      23.02605358 
H      26.90943124      33.87757375      22.46010638 
H      29.91952971      21.60185998      11.53324946 
H      29.17817078      20.05813615      11.00299901 
H      28.66428523      21.60411683      10.25316392 
H      15.42017640      21.34288783      15.25066238 
H      16.66644293      22.32315289      14.40371972 
H      17.16153570      21.00537338      15.50324936 
H      28.30836068      15.86793924      15.20721917 
H      27.92459764      15.56966692      13.48378066 
H      28.28841532      17.23478101      14.04783280 
H      15.36387567      12.73857138      30.42143125 
H      16.70578648      12.10580740      29.42031764 
H      16.90521820      12.25079880      31.19388548 
H      31.00873827      13.78925550      30.83087052 
H      29.96031467      14.83017887      31.84949607 
H      29.75802349      13.04856135      31.87214866 
H      27.91835862      35.91993112      29.95097761 
H      27.00549090      35.88646295      31.49440665 
H      28.76050449      35.51546911      31.48023638 
H      32.82451781      29.07512287      17.41982624 
H      31.49655665      29.94202391      18.23630693 
H      33.20375757      30.35068919      18.61585940 
H      26.83769031      15.59790606      34.07900392 
H      25.35627548      15.26280671      35.02798030 
H      26.43885087      13.91146079      34.54338244 
H      12.93299550      29.77949203      21.34666495 
H      13.24005132      31.30600201      20.46159304 
H      12.08534561      30.11203011      19.79812997 
H      12.53081978      27.53393435      25.75945307 
H      11.22277389      26.43663984      26.28742090 
H      11.85299259      27.69383403      27.40314418 
H      36.09356721      20.12491377      25.92022521 
H      36.93488999      20.24640165      27.50196405 
H      36.11505063      18.72595143      27.03792748 
H      29.91414603      25.68790184      14.77347537 
H      31.62058006      25.15638450      14.74009208 
H      30.41424747      24.39251263      13.65517318 
H      19.70669688      23.87047040      35.80363861 
H      18.88418577      25.08332378      36.83893162 
H      17.92342247      23.87846153      35.92576755 
H      36.80408197      25.74140596      25.27491261 
H      37.49041256      24.35606871      26.18427453 
H      36.22032573      24.08234691      24.95160585 
H      20.01262661      19.90506850      37.12069151 
H      19.11633805      18.91720194      35.91947254 
H      20.89427408      18.76557412      36.03561163 
H      32.07179698      24.22585588      32.67734031 
H      32.89114712      25.71837323      33.26177745 
H      31.09391955      25.61946646      33.26373896 
H      25.85952259      19.48638614      11.61108716 
H      25.17111793      17.88700896      12.04868554 
H      24.47575128      18.82026348      10.67348107 
H      14.75690579      33.38050949      21.52369208 
H      15.72950160      34.46396126      20.48924474 
H      15.77597102      32.68992366      20.22290730 
H      14.91761164      26.15031141      32.99039215 
H      14.22067664      24.75683951      32.09571723 
H      15.93278852      24.72414461      32.61509826 
H      11.23515075      26.87318675      20.58265644 
H       9.82618720      27.05467107      21.68032306 
H      10.86774885      28.46641945      21.32566714 
H      22.60736749      11.53704610      17.20618741 
H      22.21342095      13.10552969      16.46042732 
H      23.28723672      11.94980792      15.60238740 
H      12.74674916      23.50692861      17.20933722 
H      12.24544102      25.20678794      16.93819183 
H      13.98485187      24.75347759      16.89725640 
H      22.62493423      11.90745396      28.05312494 
H      21.28672832      11.25141213      29.05736351 
H      20.92377656      12.18509825      27.56185154 
H      16.93886995      15.22937549      32.72237744 
H      17.80140075      15.91048988      34.13503785 
H      16.00582661      15.92658582      34.08720021 
H      13.34160526      16.24494110      21.26473276 
H      13.80676535      14.79796461      20.29849946 
H      13.79083997      14.72270965      22.08762692 
H      12.82596117      14.04296745      26.32736699 
H      12.92077962      15.57565367      27.26149270 
H      12.54673403      15.61826249      25.50551620 
H      27.75877888      32.58668660      15.95513630 
H      27.02882679      33.81348030      14.86071491 
H      27.24398331      34.16280672      16.60755946 
H      31.80524866      13.97601082      24.47743510 
H      32.19883538      13.40695898      26.12814812 
H      31.64260629      12.23953801      24.89512915 
H      18.21364236      12.93692294      18.16597364 
H      17.95854958      12.83938669      19.93888239 
H      17.71489892      14.39503993      19.09731349 
H      28.77405771      35.01176888      24.99560341 
H      28.81308103      34.83733025      26.78149081 
H      29.54578238      33.58114404      25.74826612 
H      11.80397401      23.13946902      28.81509705 
H      11.08703731      21.50835578      29.01614633 
H      12.68619252      21.88958026      29.74243333 
