699
Properties=species:S:1:pos:R:3 i=87 optimized=T E=-10866.8913651025 pbc="F F F" jobid=279_84-Ag-10_0-000006-PBE
Au      33.18296038      25.44866651      26.06559326 
Au      32.10380957      29.40984653      21.52787491 
Au      34.67513497      28.02343990      25.35812021 
Au      29.92859399      14.85391904      19.70564340 
Au      34.11166203      19.62247023      23.75271706 
Ag      26.92197763      23.39881703      13.21501088 
Au      18.07440677      33.30735962      28.14588737 
Au      28.57510667      30.74743146      18.01582331 
Au      24.92389485      21.19829445      23.24268608 
Au      26.26858197      23.24652637      24.92236751 
Au      28.20754189      25.11184486      23.63036323 
Au      23.78081097      21.67406391      29.07823251 
Au      23.38916673      27.93297571      26.95711064 
Au      26.92216527      23.04741491      21.99742643 
Au      22.37657379      19.54973553      27.37643636 
Au      27.19538860      21.15739991      26.74899162 
Au      22.01590505      21.47498852      22.71863556 
Au      20.98734082      23.53455722      20.85438257 
Au      27.64223162      25.33816417      26.54996992 
Au      19.95203961      24.07397326      26.72589845 
Au      25.47456744      21.03941565      20.32505106 
Ag      24.34616991      25.82441446      28.79284179 
Au      23.84591166      27.74373971      24.00677386 
Au      26.25402657      27.71207209      27.60903183 
Au      20.88629082      21.94156870      28.44309185 
Au      22.87404402      23.76394655      27.21757958 
Au      21.46045709      21.69442212      25.60773415 
Au      19.49142886      19.80218936      26.93068257 
Au      25.82059993      19.09095416      25.10139683 
Au      25.25648791      23.70124151      30.71007197 
Au      22.99393483      25.32520511      19.55519492 
Au      20.96315676      27.95303098      23.52472464 
Au      26.64218671      27.44528101      24.68591129 
Au      22.55277197      21.32845709      19.81164100 
Au      21.92369117      25.88730233      25.36809880 
Au      27.25308531      25.57009057      29.42607770 
Au      20.12542362      19.62302010      24.04621367 
Au      25.89355219      25.04056967      20.14956248 
Au      23.48220888      19.15641517      21.60493056 
Ag      22.35930953      23.99353931      30.07677626 
Au      21.01662044      17.42649396      25.87215711 
Au      21.54366756      27.65316163      20.52749643 
Au      24.39374344      27.42434995      21.17057175 
Au      24.52700973      23.07960458      18.45475728 
Au      28.66721198      23.18311713      28.44432253 
Au      18.58100897      21.94013605      25.12747734 
Ag      26.70393568      21.32548681      29.67932542 
Au      22.41207281      30.11629625      25.05374191 
Au      27.21397731      27.16014675      21.78397849 
Au      21.76489137      19.76146123      30.23477036 
Au      18.48805556      26.43108286      27.73346833 
Au      23.15829939      21.73704165      31.99005456 
Au      21.57894874      23.38617686      17.87920610 
Au      17.03469054      24.29107231      26.21687050 
Au      27.47385983      22.76879060      19.04322357 
Ag      23.86243547      17.14045359      26.33553271 
Au      23.18819259      17.42280505      29.25402273 
Au      25.23498963      29.84256823      25.66905734 
Au      21.60289186      17.21897106      22.89319365 
Au      28.77546875      18.75319633      25.66011006 
Au      22.86417482      29.80854486      22.15414591 
Au      25.32204850      25.34252860      23.04874289 
Au      20.06235139      25.62387123      18.92721830 
Au      29.52175631      27.21427647      25.33722091 
Au      19.39034939      24.33917561      29.62397063 
Au      17.95310272      22.18229570      27.98390631 
Au      19.97697090      28.46784929      29.40855277 
Au      23.80976503      26.01726683      31.65095275 
Au      20.98078216      26.40792686      31.17917333 
Au      26.38407549      18.91175111      22.09195677 
Au      24.60263634      19.48572704      30.91708654 
Au      20.30083847      17.57188004      28.77567102 
Au      28.90320901      24.84335230      20.73870281 
Au      19.51432001      30.24007765      24.59308016 
Ag      25.74745801      29.61419446      22.72213949 
Au      24.97224032      27.06968448      18.20245483 
Au      28.43808501      20.75558870      20.86538825 
Au      29.14470255      27.52988440      28.26321568 
Au      30.04034434      20.92084917      27.30369679 
Au      18.11514699      23.84511142      20.31614726 
Au      17.63046311      19.62254698      20.67086848 
Ag      25.77314701      27.82937458      30.47443587 
Au      28.18556769      23.49176274      31.23913580 
Au      21.94082436      30.28009680      28.05022747 
Au      21.82780675      24.21516980      32.91705669 
Au      18.68122195      27.95066420      20.02024315 
Au      16.23690018      21.90716655      21.68170415 
Ag      30.51456186      25.13954284      27.13352408 
Ag      23.39850968      23.53119101      24.32481585 
Au      20.01180665      29.99502456      21.59525732 
Au      16.50228183      19.99561204      26.46473646 
Au      26.73407503      17.00884082      26.91816589 
Au      30.04978839      25.26175763      29.99393051 
Ag      17.56569284      28.47969793      25.89093003 
Au      16.17953968      26.35111085      24.31848219 
Au      28.52752468      29.24158264      23.31318885 
Au      27.84308420      26.88228967      18.93556895 
Au      24.11042708      19.07814243      18.65931156 
Au      27.33761768      16.80037717      23.96455714 
Au      26.97109216      18.71868644      19.18729010 
Au      25.99567495      21.43504497      32.62159990 
Ag      12.52458146      18.84394154      22.02354710 
Au      23.03654001      21.10389879      16.88637008 
Au      26.34229963      29.19696107      19.75897661 
Au      20.05356191      19.67471107      32.49784479 
Au      26.05415213      17.23433527      29.77504365 
Au      29.23651715      18.63690542      22.69423137 
Ag      27.72885233      29.84491126      29.27452019 
Au      15.16076568      22.39645533      27.47248495 
Ag      26.06101981      20.80235012      17.27896693 
Au      24.57798780      23.92169560      33.49691862 
Au      23.60782365      25.11986811      16.42961112 
Au      17.51266578      17.92345449      28.22230230 
Au      19.03177146      30.51173171      27.51246670 
Au      23.51973530      29.47886794      19.23110983 
Au      22.42057141      25.60500757      22.45592486 
Au      16.07201163      20.04170833      29.40531502 
Au      27.42873929      19.14425167      31.43027903 
Au      29.14567662      28.97599259      20.48498260 
Au      16.45227286      24.43885035      29.06737085 
Au      31.98179621      22.85423802      26.12656349 
Au      16.55024754      21.62906308      18.77513536 
Ag      24.89595347      31.60647879      20.72166100 
Au      21.98823929      31.72106785      20.26435571 
Au      20.69936363      25.36869111      16.04056167 
Au      24.37170394      31.91868732      23.85874397 
Ag      20.59933998      29.73511692      18.66559686 
Au      23.10895832      14.94637978      21.55398211 
Au      30.34841481      22.51343795      19.58631703 
Au      25.12590045      22.83234472      15.47629358 
Au      18.72460475      23.66179783      17.27598421 
Au      28.89817090      20.56545624      17.92010321 
Au      17.60846024      22.52614383      31.04997887 
Au      17.14321581      28.71168612      28.76656115 
Ag      27.90486329      16.59740367      21.00712797 
Au      15.63988152      26.78271835      27.17534489 
Ag      18.76428199      15.58111031      27.15411576 
Au      19.56069872      15.42381621      23.98366254 
Au      18.06541432      26.76147918      30.81444429 
Au      20.17639433      15.36056416      21.20594479 
Au      27.37277656      31.64842106      24.19500116 
Au      24.85250640      15.19229852      28.33390566 
Au      23.95090797      23.29937042      21.44207848 
Au      20.06488637      21.12451654      16.38620485 
Au      27.89948528      22.68395923      15.91471927 
Au      31.44539529      20.33891720      21.80251375 
Au      26.79614882      31.87799088      27.47724132 
Au      25.64049815      14.91595648      25.19861278 
Au      28.69790736      16.25945648      28.94238698 
Au      25.96263903      14.87168680      22.26160722 
Au      32.54702585      22.62403849      23.26796722 
Au      25.72358347      30.58646491      31.19007670 
Au      22.93345613      30.91598156      30.72821003 
Au      24.21666402      16.83590477      31.93568042 
Au      31.29608720      17.84813645      24.70709164 
Au      17.01487755      26.05482990      18.59323267 
Ag      31.60708789      22.85277675      28.89724711 
Au      29.35299394      15.97430326      26.00147818 
Au      15.51777840      29.23335436      23.92713204 
Au      16.04718018      28.97705100      21.00377739 
Au      16.98985439      31.23742755      25.53295411 
Au      29.51419121      24.84851302      17.88529789 
Au      30.71968970      18.01575977      27.61310532 
Au      18.52275495      17.58689708      30.95345447 
Au      24.06265641      19.71976555      33.73400798 
Au      18.07374290      30.74373006      19.70377030 
Au      17.45152260      31.05128012      22.61947013 
Au      14.18988177      27.06693874      22.34778512 
Au      32.58972848      19.97692560      26.34350619 
Au      24.78535442      25.58396256      25.93839636 
Ag      32.85721891      26.89339470      23.18377987 
Au      24.67815775      19.97757032      14.87549418 
Au      20.10089701      31.19396401      30.10745173 
Au      31.78178891      27.77847913      26.97183844 
Au      22.72648228      28.49771981      32.52115755 
Au      29.82324581      15.83552020      23.06551399 
Au      22.56785418      16.95409015      34.52741272 
Au      13.28736014      19.52321100      28.59097058 
Au      24.10604081      27.85744303      15.55554200 
Au      15.20750780      17.45299024      30.97691442 
Au      25.68715042      25.65442977      14.61997314 
Au      28.85243202      30.50948408      32.36482693 
Au      22.59221356      30.08415612      16.64609561 
Au      22.04766481      21.77915889      34.93847546 
Au      31.53157592      28.25891546      31.13610866 
Au      19.23515592      13.85375253      29.49211920 
Au      22.23160136      25.30582158      12.88969864 
Au      15.90517810      14.72109784      28.10409766 
Au      25.55089321      33.83672730      29.30778105 
Ag      26.61190825      14.60842590      30.88876741 
Au      28.45574764      13.29580363      23.99111718 
Ag      16.20756667      17.21334809      19.58866974 
Au      16.10797423      17.20057288      23.30593122 
Au      20.70293072      15.37062815      17.67065233 
Au      11.78840982      24.57530736      22.97894111 
Au      14.55705258      30.21594022      27.05941590 
Au      24.31525822      21.39706653      26.13802139 
Au      14.82282292      19.90631607      20.21380516 
Au      25.49705038      31.13949034      17.97779684 
Au      28.87841898      20.48952254      14.21547278 
Au      30.16980083      27.02740467      22.47806798 
Ag      31.06281755      24.94509017      24.25969846 
Ag      31.78205416      24.78675817      21.45100183 
Au      20.50596277      23.79610600      23.81135664 
Au      25.25920923      14.82659378      15.95296150 
Au      30.73921609      29.77675815      25.00664274 
Au      25.73789705      23.45604518      27.85767735 
Ag      27.03767093      27.62550046      16.29522827 
Au      20.80177132      31.46174566      33.14081622 
Au      17.64419979      23.99515667      23.30032099 
Au      22.97160138      19.29043233      24.49031749 
Au      27.77634061      20.92400673      23.81556068 
Au      19.57601846      25.89263135      21.91335132 
Au      24.92903423      31.06010501      14.86884610 
Au      25.18001258      19.33570963      27.98715493 
Au      19.02560109      26.12968444      24.83493552 
Au      20.52076655      28.21028649      26.45561607 
Au      21.41966156      26.07581651      28.27736935 
Au      29.12040941      23.07374412      25.52310968 
Au      19.13628379      21.70833570      22.17770327 
Au      24.48240313      17.01442260      23.43083727 
Au      22.95582207      28.19861263      29.79429689 
Ag      20.64166421      19.45181107      21.12586537 
Au      20.42471442      22.23927955      31.32324397 
Au      24.87084401      30.11478474      28.62839616 
Au      18.00801346      28.27599570      22.96311053 
Au      28.09166297      19.01890426      28.55724254 
Au      18.92621335      20.16901326      29.80590860 
Au      29.79770710      22.77180192      22.60142971 
Au      19.54103602      21.54254810      19.20485584 
Au      18.19955478      17.72066438      25.29146128 
Au      15.67482468      22.11307509      24.58144742 
Au      16.68548895      26.13246094      21.41045796 
Au      26.58468773      24.84218225      17.24287995 
Au      28.05825094      29.60127272      26.23457765 
Au      17.18922194      19.84463703      23.58094081 
Au      18.77363471      17.62707003      22.36355648 
Au      30.64479830      20.72447683      24.46007376 
Au      22.11490490      27.40668433      17.63526767 
Au      21.11476777      19.29767710      18.28801691 
Au      22.18385230      17.13396696      19.83515230 
Au      21.82168580      15.36318568      27.61557407 
Au      19.04201646      24.51346319      32.49568815 
Au      26.51078331      25.74009255      32.43183310 
Au      14.77479252      24.22917104      22.71135493 
Au      29.71672427      20.61450843      30.14908752 
Au      23.81331695      32.10567107      26.70291901 
Au      22.41028539      15.12201911      24.82173188 
Au      25.00532732      16.89363412      20.41657730 
Ag      28.62833766      27.74025832      31.08629469 
Au      19.27066106      17.45589204      19.52233183 
Au      27.79319410      31.28712513      21.45418113 
Au      15.29988494      24.04476445      19.87992297 
Au      21.34309912      17.16199384      31.47604571 
Au      21.12724982      32.13951690      23.02759667 
Au      14.13070166      24.49324447      25.38616980 
Au      22.38515165      23.02937735      14.82506299 
Au      30.69390417      26.78212849      19.56074827 
Au      18.24047554      19.39633035      17.73046538 
Au      22.78867692      18.24085999      16.23723775 
Au      15.49912168      17.39544553      26.17996905 
Au      30.32650325      30.03834737      27.95843149 
Au      29.73432700      18.37121513      19.77339117 
Au      13.59408307      21.60211875      22.61835442 
Au      30.52722043      17.61416892      30.97816888 
Au      26.76048460      15.92730113      18.43902513 
Au      20.77969862      32.30237109      26.27927738 
Ag      19.26439880      27.77104814      17.10606371 
Au      25.74983817      17.96426832      16.63042186 
Ag      14.44905804      19.46353239      24.42529768 
Au      19.06719678      33.43509325      20.70465505 
Au      24.09594123      22.15806673      12.30392506 
Au      34.61489146      22.53033373      27.55735090 
Au      29.10456975      32.91294956      29.34488345 
Au      19.21129002      31.23408931      16.47035602 
Au      23.62358919      14.94611139      18.78807788 
Au      13.72109441      27.10041696      19.35628271 
Au      20.79326415      26.78156001      34.63458558 
Au      19.65224074      28.58765643      32.29956632 
S      20.76302329      15.86054399      33.48526359 
S      28.50391943      32.60218869      19.51109102 
S      24.01013173      22.92427464      35.67349699 
S      24.31894478      18.14928244      35.55607812 
S      12.33685408      18.14688794      24.31295724 
S      32.28012238      17.42555124      29.40587222 
S      31.42151154      14.81558380      21.52687607 
S      29.88538710      19.36102510      16.02401807 
S      28.27686377      22.07587062      33.21560436 
S      22.85046405      27.94266672      34.88025089 
S      13.45681333      30.05022190      24.98098422 
S      16.31016885      17.97990027      17.23799690 
S      32.70830910      23.09842902      19.80256516 
S      26.72474300      30.63168304      33.38022353 
S      22.85537966      32.49599740      32.62553607 
S      17.14114905      31.47456428      17.56727745 
S      11.26163878      22.27819172      22.79690864 
S      24.96209895      13.25030420      26.86133120 
S      33.89525305      29.04434051      27.33492577 
S      28.60752303      26.53944462      33.33790664 
S      24.00852425      24.41718655      11.60968152 
S      27.49525406      25.90471703      13.05348285 
S      19.09703014      33.40084993      30.26831069 
S      28.92493865      17.66695773      32.71279608 
S      21.23413383      34.00483064      24.59911539 
S      30.94978926      32.37875701      27.97646241 
S      28.95442010      29.20888830      16.25105138 
S      33.53448987      17.33417318      23.85164093 
S      34.86777039      21.85940001      23.59246482 
S      18.97240769      13.64560333      25.50262305 
S      20.88044674      33.63273889      19.19652793 
S      12.56038089      19.31184007      19.64737073 
S      18.75080104      30.40419420      33.63941271 
S      31.86640632      31.02571561      23.25952435 
S      35.35343478      27.07211059      23.31184684 
S      31.10780498      30.51945107      31.66701984 
S      23.03007272      13.26874912      23.33338405 
S      32.06732238      19.13878889      19.78255953 
S      28.64281003      14.55105630      17.76029936 
S      15.44978209      30.42371880      29.23472412 
S      31.55426019      21.81833185      31.18473111 
S      20.40194965      26.42928595      13.85539240 
S      17.03205381      26.91513279      16.32740985 
S      27.32217315      12.85321057      21.96462608 
S      16.78946787      33.59925397      26.19073358 
S      15.37435693      21.59017495      31.22749733 
S      21.06832719      16.63276097      15.68085728 
S      24.67966397      29.14775382      13.52928872 
S      20.20885002      22.04669265      14.14320342 
S      21.13565051      31.30548034      15.12383516 
S      23.61105276      34.16673150      28.01811072 
S      13.38542477      17.33678881      29.48496470 
S      24.36425203      33.62319759      22.12064208 
S      27.97695350      21.38743151      12.23491205 
S      16.44369356      22.95243496      16.71762912 
S      26.08814714      16.57289703      14.60678678 
S      16.96680916      14.06378090      30.10447196 
S      28.73542690      14.00203010      29.85380777 
S      27.41849622      33.77724912      30.75850087 
S      32.73622929      28.13035122      19.62353511 
S      24.99285126      14.66329432      32.70046390 
S      14.24665126      29.40166249      19.39183496 
S      13.38613819      25.80274499      27.29519496 
S      34.45022643      20.20347795      27.90516187 
S      30.27177664      23.55201361      15.99798900 
S      18.71650487      25.64704179      34.64902025 
S      35.23148329      24.78643073      27.29078022 
S      19.94581903      20.67588765      34.70255220 
S      32.22657016      26.03670879      30.78553709 
S      23.96200836      19.81485678      12.55503651 
S      17.21714208      33.44850877      22.16875750 
S      15.70520463      26.11626454      30.70210402 
S      11.84827804      26.93471750      23.04703342 
S      24.38265029      13.14458885      17.35219138 
S      13.08981735      24.83253573      19.15522358 
S      21.50556114      13.42422929      29.08107232 
S      16.82829792      17.45236707      32.68922628 
S      15.65036846      15.71029391      21.46663422 
S      14.66465072      15.10887605      26.13897826 
S      25.26657484      32.89583141      16.31165191 
S      29.61168407      13.53896044      26.02957994 
S      20.07182001      13.77690011      19.33015504 
S      27.19656603      33.56057918      25.68633041 
S      12.84014421      21.66121369      27.71349517 
C      21.29228329      14.13190813      33.18806064 
C      30.26253529      33.00443309      19.85903799 
C      23.39796168      24.29428419      36.73038051 
C      23.63912178      18.94574258      37.06297988 
C      11.00567775      19.17394398      25.05295311 
C      32.56907772      15.62283811      29.21934234 
C      31.57985074      13.01666953      21.86180871 
C      31.61785188      19.95997890      15.98105153 
C      28.09725167      23.09521130      34.72450137 
C      22.55014810      29.45742114      35.87009206 
C      13.26943574      31.77322784      24.37714532 
C      16.94714342      16.56254317      16.25845161 
C      33.22972300      24.06804389      18.33761930 
C      26.56001166      32.33343979      34.03958079 
C      22.44117047      34.15172478      31.95630098 
C      16.90483638      33.29608068      17.54113500 
C      10.56044095      22.17855902      21.10179812 
C      26.42658125      12.27499618      27.36533409 
C      34.81254131      28.27952182      28.72385479 
C      28.20758196      27.58706909      34.78878365 
C      23.29736585      24.30421654       9.91579878 
C      26.84675850      26.69476641      11.53499942 
C      17.65476965      33.24421223      31.39366883 
C      29.68692541      18.66752302      34.04720222 
C      19.73670023      35.03901381      24.40775591 
C      32.47079565      32.56773777      28.97959741 
C      28.78225206      30.19797013      14.71422397 
C      34.44499816      16.64380367      25.28730228 
C      35.67331946      21.98922998      21.94896439 
C      17.34573716      13.01677977      24.93859857 
C      21.80684623      35.12084732      19.73784411 
C      12.58867546      17.72323495      18.72751771 
C      18.79212614      29.88055419      35.39661179 
C      33.57528233      31.38607016      23.81804900 
C      35.88361064      28.47048886      22.24494119 
C      32.03474784      30.74518793      33.24078626 
C      21.53960391      12.26300579      22.99177833 
C      33.20252039      17.77071219      20.20793851 
C      28.10660394      12.80273950      17.92185000 
C      14.21309348      29.62838123      30.33323953 
C      32.96961539      20.66879409      31.38066201 
C      18.92973609      25.58820579      13.15459347 
C      15.80862268      28.27082316      16.19494663 
C      26.21273516      11.43580462      22.32113933 
C      15.12118674      33.96808359      26.86279723 
C      15.32442705      20.71897500      32.83692411 
C      21.80754245      15.46917296      14.47387127 
C      23.12989647      29.35104989      12.57293333 
C      20.51639822      20.61220313      13.04920075 
C      21.61143097      33.07480778      15.23936690 
C      24.08024425      35.49156672      26.84043239 
C      11.91336180      17.27627719      30.58606002 
C      25.91336746      34.59379940      22.24035802 
C      29.44104283      21.99735120      11.30948609 
C      16.48379982      21.74453819      15.34374382 
C      27.88639114      16.27400310      14.41282221 
C      16.44470963      12.31042445      30.30518241 
C      29.85169279      13.90190357      31.31107274 
C      27.86969095      35.55128277      30.94588476 
C      32.61039811      29.29714102      18.21102979 
C      26.03789505      14.97257888      34.17980747 
C      12.91237309      30.21483343      20.35363730 
C      12.13936336      27.00871205      26.71598084 
C      36.00694605      19.59166254      27.14781675 
C      30.55297596      24.75875332      14.64973818 
C      18.91065837      24.37724496      35.96003880 
C      36.57709475      24.67600977      26.04741047 
C      19.93991323      19.31693114      35.93142328 
C      32.31020212      25.35400946      32.48729821 
C      25.27692617      19.03095806      11.54834367 
C      15.72756088      33.60226324      21.10887775 
C      15.32681008      25.30661618      32.29948947 
C      10.72898551      27.40342377      21.66960782 
C      22.90879427      12.42396125      16.53214174 
C      13.02096103      24.52052102      17.34843100 
C      21.47752541      11.98480547      27.94290097 
C      16.86041668      15.76250397      33.39654684 
C      13.85481746      15.34330259      21.46061614 
C      12.89547496      15.11266189      26.61284470 
C      26.93989443      33.56027782      15.95659029 
C      31.38199378      13.24414190      25.65033292 
C      18.28589027      13.46997802      19.03564606 
C      28.87059649      34.29703715      25.76549791 
C      12.22614845      22.59685056      29.16729185 
H      22.34449854      14.08324221      32.88591650 
H      21.14477014      13.57055548      34.11818624 
H      20.65338817      13.72283741      32.39488936 
H      30.71552420      33.40168998      18.94351678 
H      30.27815017      33.77002966      20.64384288 
H      30.81368832      32.12199441      20.20252188 
H      24.26050156      24.91653614      36.99710268 
H      22.65698325      24.90826781      36.20534462 
H      22.95852313      23.86115362      37.63622128 
H      23.41356753      18.16521216      37.79827690 
H      24.41526181      19.61527068      37.45230503 
H      22.74218117      19.53220582      36.83754803 
H      11.16747903      19.20769377      26.13758581 
H      11.00985055      20.19350402      24.65327243 
H      10.04272081      18.69814845      24.83474100 
H      33.28044931      15.49028053      28.39513244 
H      33.00705987      15.23901992      30.14788700 
H      31.63592243      15.09640643      28.99045312 
H      30.60703234      12.56591442      22.08889367 
H      32.02341803      12.54209162      20.97944984 
H      32.25311534      12.89695018      22.71847123 
H      31.65195704      21.05277619      15.90978645 
H      32.09739516      19.63242702      16.91234539 
H      32.11641318      19.50538991      15.11741962 
H      27.91264571      22.41720413      35.56599492 
H      29.03477137      23.64403268      34.87177956 
H      27.26712182      23.80555246      34.62617797 
H      21.82153408      30.12003202      35.38530368 
H      22.20938860      29.17453525      36.87245496 
H      23.51269101      29.97915635      35.94168458 
H      12.57975030      32.30706900      25.04073724 
H      14.23795566      32.28322256      24.34307910 
H      12.84307197      31.72102118      23.36805078 
H      17.17778468      16.91612396      15.24680707 
H      17.85376339      16.13754630      16.70499915 
H      16.16071621      15.80017866      16.21148834 
H      32.52675926      24.88567885      18.13458794 
H      34.22447293      24.47900894      18.54819295 
H      33.27554141      23.40019810      17.46996530 
H      26.89690625      33.07108053      33.30368115 
H      25.49814368      32.49226456      34.26500757 
H      27.15787947      32.40330143      34.95541841 
H      21.57171516      34.10977876      31.29151472 
H      22.23422992      34.81800478      32.80192698 
H      23.31704642      34.50793865      31.39828034 
H      15.95466589      33.51146674      18.04356381 
H      17.72282776      33.81194547      18.05690358 
H      16.84674209      33.62162529      16.49652045 
H      11.20248377      22.69248195      20.37912644 
H      10.47215857      21.11870699      20.83351986 
H       9.56884812      22.64524081      21.12137053 
H      27.28037188      12.91301676      27.60997111 
H      26.14973376      11.68303645      28.24600912 
H      26.69536762      11.61003052      26.53538258 
H      35.80940856      28.73376414      28.76360729 
H      34.25836380      28.50468242      29.64433842 
H      34.89949113      27.19442620      28.60174592 
H      28.10990262      26.93338664      35.66373151 
H      29.03197667      28.29355992      34.94393633 
H      27.28053322      28.14784232      34.63905005 
H      23.12455363      25.32505720       9.55567805 
H      24.03179082      23.80258898       9.27543607 
H      22.35811262      23.74429573       9.91490969 
H      26.01801559      26.11402239      11.11696802 
H      26.50609276      27.70956323      11.77250384 
H      27.67425488      26.73559139      10.81577767 
H      18.03774294      33.07341822      32.40684204 
H      17.09448759      34.18535493      31.35400789 
H      17.01018953      32.41125371      31.09457681 
H      30.54507495      18.11843608      34.45052881 
H      29.99777444      19.64934776      33.67481073 
H      28.92743606      18.79813811      34.82750631 
H      18.82385425      34.43865484      24.36612620 
H      19.68593644      35.71935888      25.26622202 
H      19.84080608      35.61278163      23.47865378 
H      32.34498855      32.12379506      29.97228940 
H      33.27761601      32.05609634      28.44040788 
H      32.69271137      33.63786303      29.06445270 
H      29.55083048      30.97882587      14.69598128 
H      28.93600290      29.51225359      13.87183668 
H      27.78316536      30.64623301      14.63346013 
H      34.13655857      15.59678794      25.39475826 
H      35.52019830      16.69188309      25.08075259 
H      34.20761878      17.19399010      26.20366126 
H      34.98734163      21.69751710      21.14675855 
H      35.96070597      23.03946943      21.81555591 
H      36.56717119      21.35557797      21.94348711 
H      16.82620642      12.57870330      25.79950613 
H      16.72991160      13.81761158      24.51753974 
H      17.52074381      12.24795170      24.17687713 
H      22.70284484      35.18817801      19.10871375 
H      21.17541470      36.00280232      19.58354443 
H      22.10895411      35.03968934      20.78731598 
H      12.95861274      17.92380702      17.71559582 
H      13.24156887      16.98589751      19.20522533 
H      11.56221510      17.34056170      18.68401173 
H      18.79679871      30.77380731      36.03101964 
H      17.88233931      29.29615701      35.57829530 
H      19.66387403      29.25124468      35.60851992 
H      34.08402811      30.47970446      24.17318982 
H      34.12957002      31.83242708      22.98442738 
H      33.50175433      32.10704564      24.64116708 
H      36.07194577      28.05566413      21.24743223 
H      35.10506660      29.23693938      22.16650378 
H      36.80592138      28.90324964      22.64714847 
H      31.75585089      29.99081911      33.98178453 
H      33.10458883      30.66847320      33.01489757 
H      31.80714716      31.74688886      33.62285212 
H      21.32885846      11.65959137      23.88258791 
H      20.67650305      12.90320184      22.77112096 
H      21.75535718      11.61489332      22.13448637 
H      33.28857489      17.12114401      19.32855714 
H      34.17984422      18.20528417      20.45112110 
H      32.84181696      17.18498444      21.05761177 
H      27.34393705      12.61711316      17.15603517 
H      28.98016972      12.16418377      17.74771292 
H      27.69151549      12.60945464      18.91643613 
H      13.29655969      30.22859521      30.32236467 
H      14.00475810      28.60050814      30.01925077 
H      14.63950533      29.61661265      31.34362971 
H      32.72322851      19.93899339      32.16107515 
H      33.20821262      20.14293105      30.45169333 
H      33.83717257      21.26435078      31.69066419 
H      19.03900045      24.49921732      13.20472030 
H      18.06530198      25.90636681      13.75118378 
H      18.81330515      25.91252843      12.11423063 
H      15.91477791      29.00124110      17.00160256 
H      15.97430434      28.77236466      15.23356498 
H      14.80014143      27.84132530      16.22228040 
H      26.82809708      10.55015683      22.51427722 
H      25.56120120      11.64710331      23.17514209 
H      25.59698574      11.27599327      21.42766278 
H      14.44377204      34.10591420      26.01194765 
H      14.75751230      33.15139946      27.49670436 
H      15.17864551      34.89886713      27.43820425 
H      15.07957548      21.46039750      33.60725311 
H      14.54395281      19.94929115      32.79510812 
H      16.28437793      20.24830959      33.06957035 
H      21.97302563      16.02693430      13.54422438 
H      22.76747026      15.07190868      14.83286873 
H      21.09898242      14.65258074      14.29300504 
H      22.32629783      29.76393583      13.19168545 
H      23.33735930      30.02068165      11.73021071 
H      22.84247060      28.35738955      12.20511449 
H      19.55001645      20.13474127      12.84714001 
H      20.95901665      20.97361076      12.11336991 
H      21.19339971      19.89076516      13.51804070 
H      22.60915661      33.17809634      14.79542052 
H      20.88107225      33.66007730      14.66926381 
H      21.63094126      33.40884628      16.28206836 
H      24.11669690      36.44105073      27.38632702 
H      25.05001754      35.27798436      26.37669134 
H      23.29896070      35.52589835      26.07039323 
H      11.94314826      16.32746124      31.13386785 
H      11.90629097      18.11209899      31.29112139 
H      11.01768232      17.31301384      29.95525239 
H      25.98588715      35.21864254      21.34228330 
H      25.86535186      35.22409548      23.13573164 
H      26.78781537      33.93347277      22.30388837 
H      30.04276116      22.68348326      11.91294127 
H      30.05211710      21.14075479      11.00352493 
H      29.07349263      22.52315014      10.42037254 
H      15.51313386      21.23639354      15.30815233 
H      16.65683582      22.29982802      14.41423464 
H      17.28347350      21.00755771      15.49141461 
H      28.34751346      15.96521815      15.35651765 
H      28.02015565      15.49197007      13.65635075 
H      28.33779904      17.21300004      14.06780944 
H      15.36498306      12.30156291      30.49265659 
H      16.67239207      11.72090520      29.41270641 
H      16.97498064      11.89702737      31.17077428 
H      30.88463353      13.80887424      30.95634149 
H      29.76494258      14.78737408      31.94922628 
H      29.58008644      13.00408677      31.87864392 
H      27.99881109      36.03579112      29.97412898 
H      27.06723327      36.04637022      31.50507242 
H      28.80478950      35.60190017      31.51531149 
H      32.79577988      28.72356399      17.29505763 
H      31.61613092      29.75445769      18.15540516 
H      33.38067977      30.06739989      18.33033998 
H      26.79332563      15.74028735      33.98164141 
H      25.38961411      15.29758925      35.00225643 
H      26.52950660      14.02834112      34.44236530 
H      12.80385744      29.75397342      21.34101765 
H      13.18924395      31.27002023      20.46670435 
H      11.97469371      30.13848499      19.79141488 
H      12.43539614      27.48414682      25.77710624 
H      11.19265039      26.47522033      26.56900013 
H      12.02403578      27.77367302      27.49360407 
H      36.07256147      19.87465251      26.09136550 
H      36.85026381      20.01135598      27.70768688 
H      36.01347759      18.49930486      27.24118599 
H      29.76977015      25.52211280      14.61553900 
H      31.52646442      25.23371589      14.82086808 
H      30.57085051      24.21570959      13.69730014 
H      19.79129549      23.74979366      35.78185317 
H      18.99961606      24.89118625      36.92398048 
H      18.01137142      23.75044968      35.95315946 
H      36.78528911      25.69385550      25.69461327 
H      37.46304608      24.25587864      26.53696665 
H      36.28060101      24.04672349      25.20168128 
H      20.01792718      19.74905546      36.93575613 
H      18.98218386      18.79250528      35.82825314 
H      20.76082396      18.60831291      35.75261021 
H      32.37772106      24.26236664      32.39403051 
H      33.20860443      25.75262916      32.97186884 
H      31.41461972      25.62123254      33.05918093 
H      26.22285372      19.57789092      11.61366874 
H      25.40387033      18.01038158      11.92970675 
H      24.92890004      19.00414573      10.50896778 
H      14.85331594      33.53819716      21.76810416 
H      15.74414443      34.57951896      20.61319934 
H      15.68909970      32.79846625      20.36656773 
H      15.27759047      26.08280467      33.07210149 
H      14.35674244      24.80500843      32.20243348 
H      16.09997545      24.57219270      32.55778831 
H      11.08015971      26.99599791      20.71492449 
H       9.72620248      27.02557011      21.89882008 
H      10.70457861      28.49820793      21.61920988 
H      22.44422925      11.73886568      17.25127152 
H      22.18356746      13.19735940      16.25797673 
H      23.23709377      11.87087930      15.64508821 
H      12.84385338      23.44680376      17.21219523 
H      12.18719113      25.09301768      16.92691639 
H      13.96236288      24.79562628      16.86166984 
H      22.49001672      11.88449707      27.53194796 
H      21.21473314      11.09363966      28.52406009 
H      20.75758231      12.13833182      27.13133427 
H      16.80708512      15.00600527      32.60711643 
H      17.80227382      15.66104793      33.94980841 
H      16.00743990      15.66423644      34.07798902 
H      13.24906673      16.25980798      21.47204334 
H      13.62367156      14.75488261      20.56457900 
H      13.62466498      14.75346404      22.35554065 
H      12.56452146      14.07038427      26.68783622 
H      12.74425229      15.63231469      27.56430911 
H      12.35156237      15.63136703      25.81324090 
H      27.69218879      32.76487658      15.94068515 
H      26.90950649      34.08027215      14.99246628 
H      27.18421590      34.26646161      16.75891545 
H      31.73325927      13.92071572      24.86469936 
H      31.94472784      13.42581260      26.57404817 
H      31.50904944      12.20068158      25.34037980 
H      18.17513603      12.95524565      18.07457341 
H      17.92316143      12.82728334      19.84656502 
H      17.71408343      14.40454602      19.03430361 
H      28.96963901      34.98338779      24.91558807 
H      28.96525476      34.85126905      26.70718498 
H      29.65020791      33.53137738      25.71643844 
H      12.19834929      23.65531487      28.87917499 
H      11.21671814      22.24079469      29.40231634 
H      12.88974384      22.46148499      30.02862686 
