699
Properties=species:S:1:pos:R:3 i=72 optimized=T E=-11184.5541394076 pbc="F F F" jobid=279_84-Ag-40_1-000010-PBE
Au      33.15600166      25.48709591      26.02987403 
Au      32.29084203      29.35320423      21.21143627 
Au      34.52976688      28.18567389      25.29494944 
Au      29.96863078      15.05689843      19.75005308 
Au      34.10573221      19.67305939      23.82247886 
Au      27.44692181      23.37216015      13.00089318 
Au      18.07529250      33.15332687      28.29415138 
Ag      28.40889049      30.67614837      18.21661644 
Au      24.93476836      21.24484678      23.23880379 
Ag      26.28012424      23.24898985      24.94457858 
Ag      28.23205926      25.08409709      23.64359910 
Ag      23.77505953      21.61164047      29.05413258 
Ag      23.34412621      27.88433151      27.02010797 
Au      26.92241478      23.07965396      22.02036176 
Au      22.39803175      19.56187835      27.37086526 
Au      27.19067046      21.13496082      26.76088277 
Au      22.04653116      21.50109499      22.66542775 
Au      21.02605166      23.57836799      20.80680243 
Au      27.65519192      25.25938919      26.60128819 
Ag      19.98882218      24.01588110      26.70023360 
Ag      25.49238337      21.09216707      20.33959027 
Ag      24.26405493      25.74931150      28.85144253 
Au      23.87948070      27.71666095      24.11980449 
Au      26.19150626      27.59069072      27.63123564 
Ag      20.92702966      21.88689617      28.41102736 
Ag      22.86591262      23.71514582      27.22181376 
Ag      21.49617387      21.67767459      25.58570490 
Au      19.53998208      19.81393111      26.82440487 
Ag      25.82914377      19.11496428      25.09493792 
Au      25.19983473      23.61505826      30.73304371 
Au      23.07438992      25.41579679      19.54863429 
Au      20.99143609      27.95713515      23.59062487 
Au      26.69701732      27.36354510      24.72998989 
Ag      22.59029029      21.38352708      19.77464401 
Au      21.93784316      25.84381852      25.41767099 
Ag      27.19416996      25.46772220      29.49104640 
Ag      20.17033623      19.68027563      23.97546635 
Au      25.93122532      25.11091069      20.21677136 
Ag      23.51134796      19.23366524      21.62505277 
Ag      22.33320797      23.90896838      30.06362236 
Ag      21.01824570      17.47042646      25.78620230 
Au      21.58102947      27.65674335      20.62227765 
Au      24.47063571      27.43148035      21.25729328 
Au      24.55371092      23.13016681      18.49782254 
Ag      28.65008209      23.15564550      28.43326488 
Au      18.64980633      21.96793786      25.05079934 
Ag      26.69458677      21.27675943      29.66046299 
Au      22.46807716      30.08791411      25.18925802 
Ag      27.30272645      27.14715604      21.86254898 
Au      21.81724679      19.72896534      30.28265732 
Ag      18.45478098      26.34555490      27.73934053 
Ag      23.14582117      21.65967706      32.00306200 
Au      21.63928111      23.46596540      17.86620205 
Au      17.06108509      24.29960827      26.16330475 
Au      27.51539440      22.83447370      19.09732614 
Au      23.85144700      17.18387593      26.30472867 
Au      23.29841237      17.47007572      29.26176780 
Ag      25.25841626      29.79850887      25.80547625 
Au      21.67768837      17.28056554      22.88194700 
Ag      28.74295513      18.81740707      25.69333089 
Au      22.91775967      29.81338224      22.28615706 
Ag      25.35854388      25.34631759      23.08922356 
Au      20.09153971      25.66202495      18.93540499 
Au      29.54286876      27.11932173      25.35149216 
Ag      19.41351309      24.22694661      29.56786651 
Au      18.00207039      22.17892124      27.92345570 
Ag      19.94826009      28.27524208      29.34864794 
Ag      23.72341181      25.90879008      31.70372821 
Ag      20.91159193      26.27355842      31.17053090 
Au      26.40084644      19.01397412      22.12596400 
Ag      24.67435340      19.52388781      30.86413792 
Ag      20.37033150      17.69453227      28.64235798 
Au      28.92847709      24.86032568      20.76883415 
Ag      19.57077975      30.25504862      24.65607787 
Au      25.79425264      29.58903990      22.88708666 
Ag      25.01496445      27.24930156      18.25369719 
Ag      28.44540481      20.77524911      20.87572724 
Ag      29.05564884      27.35495453      28.25753127 
Au      30.03224008      20.86737175      27.26596168 
Au      18.13639263      23.85740660      20.28753987 
Au      17.70515149      19.65656362      20.57154264 
Ag      25.64092329      27.71175988      30.50933063 
Au      28.15339413      23.40582597      31.23055766 
Au      21.89124339      30.15887532      28.12446541 
Au      21.81243446      24.09678640      32.88837825 
Au      18.72131420      27.94361166      20.09475060 
Ag      16.21755687      21.90979888      21.59227522 
Ag      30.52226633      25.07479679      27.14094101 
Au      23.42805096      23.51514349      24.32147717 
Au      20.06259576      30.02730988      21.69528355 
Au      16.63743884      20.02321944      26.34161840 
Au      26.72863116      17.02507110      26.93813573 
Ag      30.01763769      25.16767554      30.03436098 
Ag      17.57732653      28.42097718      25.94058324 
Au      16.21304502      26.30451404      24.31805911 
Au      28.64237738      29.19840784      23.49449940 
Au      27.92552498      26.95421753      19.03811664 
Au      24.10417580      19.15033898      18.70619427 
Au      27.34602147      16.86804879      23.96587102 
Au      26.96079125      18.80508167      19.21029650 
Au      26.01341546      21.31741039      32.68204422 
Au      12.56132560      18.79209287      22.05223575 
Ag      23.10393409      21.17385696      16.88228472 
Au      26.40128055      29.22454660      19.89789577 
Ag      19.95361442      19.56522957      32.44095181 
Ag      26.13086029      17.16799841      29.83080512 
Au      29.27077321      18.67350090      22.75022892 
Au      27.59472143      29.64740816      29.25419054 
Ag      15.21464371      22.41237384      27.37567466 
Au      26.10303656      20.89830909      17.32099438 
Au      24.58253564      23.77969127      33.47204620 
Au      23.65430059      25.26131615      16.56273999 
Ag      17.56083432      17.92653789      28.09511661 
Au      19.02278678      30.39352398      27.55557499 
Au      23.54683413      29.47832235      19.37830501 
Au      22.47706663      25.60254325      22.46885825 
Ag      16.15522707      20.18438250      29.24783671 
Au      27.49322653      19.13886133      31.37755023 
Au      29.25755887      28.95846980      20.62455979 
Au      16.56290154      24.41638681      29.01501246 
Au      31.94067064      22.82354286      26.04114765 
Au      16.66691389      21.60376334      18.69020467 
Ag      24.96266475      31.58652935      20.83754501 
Au      22.04661934      31.75896183      20.39429629 
Au      20.73149869      25.53130752      16.09859237 
Ag      24.28322969      31.93101029      23.91798683 
Ag      20.67269408      29.78536963      18.79595613 
Au      23.16767243      14.99380712      21.58858589 
Ag      30.40781113      22.57500592      19.58910064 
Au      25.14512269      22.98341764      15.51386297 
Ag      18.75844300      23.70438555      17.27340387 
Au      28.92442246      20.64533436      18.00022571 
Au      17.57085770      22.38702933      31.04299126 
Ag      17.09477483      28.65097504      28.81253160 
Ag      27.88349483      16.71836713      21.04449968 
Ag      15.54368613      26.75235289      27.09017057 
Ag      18.88817021      15.65731762      26.95883955 
Ag      19.64336668      15.47168860      24.02602639 
Ag      18.05621755      26.61590201      30.75487392 
Au      20.25483907      15.42047549      21.21068086 
Ag      27.24585720      31.55433880      24.38470532 
Au      24.79632836      15.23354480      28.32215717 
Ag      23.98118985      23.33641029      21.41275142 
Au      20.18803825      21.22417878      16.30160469 
Au      27.95281745      22.79242520      15.97848942 
Au      31.28954224      20.44980879      21.62810544 
Ag      26.83159189      31.76979984      27.46492908 
Au      25.74938622      14.90050591      25.18925347 
Ag      28.72382127      16.21413190      28.83216991 
Au      26.01026807      14.88265318      22.27075368 
Ag      32.60118775      22.59544579      23.20935205 
Au      25.70044174      30.44326588      31.32486028 
Ag      22.92117414      30.94551145      30.74723709 
Ag      24.07136184      17.00266401      32.00079261 
Au      31.27599635      17.90462588      24.78972649 
Au      17.04897840      26.02635796      18.57752004 
Au      31.62389218      22.74299840      28.79746374 
Au      29.32664161      16.05115888      25.97748309 
Au      15.55976149      29.20450849      23.99492997 
Au      16.07857957      28.97044580      21.06855560 
Au      17.01903806      31.19919768      25.56816883 
Ag      29.45141178      24.83004453      17.89422541 
Au      30.71802586      18.06738090      27.64649024 
Ag      18.46589098      17.53324786      30.84369432 
Au      24.11785399      19.59425003      33.68815377 
Au      18.07970552      30.71571037      19.77664119 
Au      17.49572670      31.05616419      22.67957043 
Au      14.21488851      27.06079159      22.38173901 
Ag      32.66228101      20.01454371      26.42926789 
Au      24.78922256      25.55380664      25.98619517 
Ag      33.02655651      26.67815071      23.08557038 
Au      24.92629723      20.17443046      14.92760788 
Au      20.07626407      30.97353017      30.21399089 
Au      31.70467827      27.78095968      27.09484938 
Ag      23.69994997      28.63905215      32.55002592 
Ag      29.84030339      15.87761428      23.07138311 
Au      22.20653207      16.93614436      34.39978195 
Ag      13.94916157      19.59007429      27.44458215 
Ag      24.17325466      27.96588464      15.55489967 
Ag      15.36896910      17.64979014      30.53533211 
Au      25.71546900      25.70452378      14.68405734 
Au      28.97192047      30.40441361      32.30050928 
Au      22.71809339      30.13591784      16.80199254 
Au      22.02754667      21.78254191      34.93809188 
Ag      31.16893255      28.14887870      30.12301985 
Ag      19.59871380      15.08655388      29.70123796 
Ag      22.95312999      25.72985714      13.73718372 
Au      16.19415842      14.96669764      28.11156524 
Ag      25.16110259      32.78088135      29.63637482 
Au      26.70579336      14.56338589      31.11850872 
Au      28.54212519      13.32918986      24.00524984 
Au      16.19741364      17.05508708      19.32432158 
Au      16.13877293      17.42948487      22.96650223 
Au      20.64554854      14.97754555      17.83019027 
Au      11.77568453      24.61223908      23.00175678 
Ag      14.72823381      29.88056150      26.99214961 
Au      24.33758424      21.38333442      26.16958144 
Au      14.98413959      19.80823683      20.05057491 
Ag      25.40701451      30.98569983      17.91363301 
Au      28.68045484      20.26383876      14.55028801 
Ag      30.25538071      26.97436252      22.46445301 
Ag      31.09257320      24.89649915      24.20451672 
Au      31.83124538      24.74066172      21.40898201 
Au      20.52797070      23.79440660      23.79166875 
Au      25.19910420      14.75945518      16.09349109 
Ag      31.43990512      28.89295077      24.34825678 
Au      25.72272090      23.42193803      27.88310777 
Au      27.17335607      27.61620018      16.37616680 
Au      20.89716077      31.34910370      33.21473480 
Ag      17.66414787      24.00438270      23.22994776 
Ag      22.99368970      19.34682469      24.48153194 
Au      27.79399257      20.96002213      23.83437957 
Au      19.59693097      25.89510931      21.94330587 
Ag      24.95970626      30.93437782      14.91162723 
Ag      25.23535966      19.28143174      27.98529720 
Au      19.04856709      26.09356570      24.85171114 
Au      20.48783541      28.11046237      26.48475383 
Ag      21.38815618      25.98680754      28.29354368 
Au      29.10945666      23.02809324      25.48370739 
Au      19.16306600      21.75835454      22.10293442 
Au      24.49786614      17.05730630      23.44017904 
Au      22.83004087      28.07606171      29.91880467 
Ag      20.68773448      19.51582648      21.04934852 
Au      20.39389193      22.11737718      31.26083424 
Au      24.76372340      29.98234289      28.69589696 
Au      18.05611432      28.28899540      23.01536906 
Ag      28.11226601      19.00275282      28.57767101 
Au      18.97077607      20.08131000      29.71447712 
Au      29.80962439      22.75562485      22.59548718 
Ag      19.61861678      21.59844733      19.13987562 
Ag      18.19879639      17.77121159      25.15182172 
Au      15.76886515      22.15981233      24.48609353 
Au      16.69213976      26.13228358      21.40276800 
Au      26.58386814      24.98221462      17.33589052 
Ag      28.08451487      29.44345604      26.30077514 
Au      17.27622246      19.90641679      23.46205930 
Au      18.89887836      17.66125266      22.34322647 
Ag      30.70916690      20.71485010      24.40867810 
Ag      22.12323790      27.49262560      17.72106951 
Au      21.20430056      19.38606321      18.17535039 
Ag      22.17027928      17.21493976      19.88039243 
Ag      21.90447705      15.39650161      27.61898170 
Au      19.01455004      24.32233964      32.47576296 
Ag      26.51827212      25.60370680      32.40387784 
Au      14.80375195      24.24964413      22.72671739 
Ag      29.60910220      20.83626955      30.17900705 
Ag      23.76508456      32.06151195      26.87230721 
Au      22.50595879      15.15028221      24.81987499 
Au      24.97145562      16.95852993      20.51752406 
Ag      28.44432810      27.71530186      31.16934616 
Au      19.30867379      17.48223806      19.47813343 
Au      27.82756037      31.20247197      21.61088465 
Au      15.34444759      24.04123413      19.85076543 
Ag      21.27437423      17.07565541      31.32185120 
Au      21.23937035      32.14642603      23.16908419 
Ag      14.10018970      24.44671905      25.46312203 
Ag      22.34313041      23.14087054      14.91218196 
Au      30.74135309      26.75669357      19.56892370 
Au      18.43396773      19.40022058      17.57745875 
Au      22.86155273      17.35929643      17.01745271 
Ag      15.51746610      17.43472172      26.02113266 
Au      30.20445715      29.97010504      28.11776555 
Ag      29.78844570      18.37723763      19.78115613 
Au      13.58660993      21.67312340      22.70814458 
Ag      30.25734473      17.73271579      30.92415941 
Au      26.66841042      15.99798697      18.51056647 
Au      20.81306356      32.23396070      26.43005187 
Au      19.24410018      27.97862078      17.23259536 
Au      25.73180128      18.04795518      16.62679319 
Ag      14.52407572      19.51817463      24.36549688 
Ag      19.25517258      33.19129981      20.93579246 
Au      23.75516234      22.27119959      12.43779695 
Ag      34.44800103      22.54166361      27.53954248 
Au      28.90188015      32.89030262      29.26667463 
Au      19.28381576      31.08015238      16.52118008 
Ag      23.72435850      15.06115284      18.76154674 
Au      13.76295259      27.04978844      19.38619623 
Ag      20.98512048      26.72677298      34.15285063 
Au      19.58126284      28.57570114      32.11228693 
S      20.47443420      15.76908177      33.33000282 
S      28.45003128      32.62944098      19.72422732 
S      24.01829704      22.86057072      35.69434739 
S      23.98694836      17.99553985      35.51773488 
S      12.43571161      18.08321997      24.29185310 
S      32.19607381      17.49600384      29.50338500 
S      31.53164501      14.94322557      21.50873624 
S      29.96673316      19.26265465      16.25421890 
S      28.29722164      22.01235624      33.25529975 
S      23.10324284      27.77475047      34.78480507 
S      13.43676648      29.95946550      24.91934430 
S      16.41378029      18.04640164      17.16701383 
S      32.85372040      23.17246265      19.80860492 
S      26.90434472      30.55473814      33.43875739 
S      22.90059950      32.48714088      32.75981553 
S      17.23365351      31.49304349      17.62543844 
S      11.23324416      22.32233732      22.85605827 
S      25.07022697      13.27237751      26.86290275 
S      33.77788691      29.17060866      27.30389067 
S      28.67636231      26.43412293      33.30578891 
S      23.74124233      24.49834998      11.68771758 
S      27.54765406      25.72681218      13.08463236 
S      19.07898917      33.20067318      30.42354832 
S      28.73874527      17.56543994      32.81222329 
S      21.24400124      33.97442763      24.77352129 
S      30.67671527      32.34168995      27.81107014 
S      28.89190180      29.31857187      16.22770907 
S      33.53605053      17.38983770      23.97481572 
S      34.94195792      21.86757924      23.64067048 
S      19.21755370      13.58414989      25.57487911 
S      20.94699879      33.58484872      19.20842200 
S      12.61581291      19.42229200      19.77783480 
S      18.85297492      30.27581960      33.71680372 
S      32.02176121      30.89001910      22.98909304 
S      35.45444589      27.19943531      23.35931710 
S      31.17165799      30.28523038      31.47603199 
S      22.98633185      13.24513039      23.32666612 
S      32.16104110      19.20398488      19.72105711 
S      28.64094075      14.74814011      17.82681174 
S      15.31761549      30.30589185      29.30387247 
S      31.67896452      21.96746144      31.10222826 
S      20.70640775      26.82179138      14.04125596 
S      17.16640951      26.96999457      16.33778049 
S      27.38631898      12.86703351      21.99878285 
S      16.76902206      33.50659527      26.36380903 
S      15.22166668      21.72601706      31.02185916 
S      21.05975421      16.22460834      15.86359554 
S      24.76246224      29.09950799      13.37343113 
S      20.04803793      22.38375530      14.17002494 
S      21.20733981      31.12852137      15.15530113 
S      23.39114388      33.99428251      28.39069341 
S      13.53523439      17.66095492      28.96116779 
S      24.40429537      33.66032886      22.11126047 
S      27.57568410      21.04493586      12.61016725 
S      16.43650948      22.96500352      16.68818448 
S      25.92943272      16.52243259      14.69940384 
S      17.21435431      14.49025099      30.18322002 
S      28.68809437      14.00539212      29.96574270 
S      27.23860844      33.69077473      30.71595164 
S      32.83295923      28.01665315      19.32573750 
S      24.92171907      14.75970518      32.63947823 
S      14.32337325      29.34313933      19.40425551 
S      13.25919446      25.82062191      27.37506294 
S      34.68115693      20.15449297      27.88670558 
S      30.32783577      23.52112747      15.99044121 
S      18.72126065      25.78885214      34.41002007 
S      35.16829980      24.84319282      27.26143628 
S      19.90966164      20.75332140      34.64002552 
S      32.29642157      25.98122001      30.50609361 
S      23.61661861      19.96238868      12.92273600 
S      17.26025137      33.46002864      22.31749497 
S      15.62207133      26.07677203      30.53372705 
S      11.87906085      26.96413334      23.09329019 
S      24.47837598      13.00972533      17.50485366 
S      13.09250550      24.78774823      19.21462237 
S      21.65302925      13.72517901      29.44332992 
S      16.70619397      17.73499113      32.56358278 
S      15.75926813      15.73132225      21.26075183 
S      14.97348250      15.03183173      26.09306473 
S      25.30476846      32.86362323      16.31982296 
S      29.75277933      13.62382613      26.00499207 
S      20.07881293      13.55113768      19.63136456 
S      26.92914108      33.58597966      25.73520267 
S      12.85608626      21.80063873      26.98297936 
C      21.09852510      14.04461645      33.21154274 
C      30.22586005      33.02883033      19.97395237 
C      23.42957420      24.26747788      36.71576687 
C      23.31083740      18.90303342      36.96027194 
C      11.03259635      19.02671093      25.00750786 
C      32.54974945      15.69940078      29.36239440 
C      31.69615410      13.12963420      21.75698248 
C      31.64074741      19.97127785      16.01508018 
C      28.15216650      23.07508066      34.73758167 
C      22.74235643      29.22753653      35.85015413 
C      13.31530545      31.73617191      24.46944266 
C      16.96022095      16.67668698      16.07358652 
C      33.41779290      24.19849412      18.39721231 
C      26.75807474      32.27422861      34.05690518 
C      22.36621617      34.15303958      32.20037844 
C      17.15596621      33.32852149      17.59971858 
C      10.53402714      22.19663283      21.16304971 
C      26.55006568      12.33842396      27.39865467 
C      34.82146984      28.40485734      28.60263021 
C      28.34598831      27.48888027      34.77370533 
C      22.31989997      24.56935458      10.52376801 
C      26.89473512      26.35351001      11.49158458 
C      17.62132654      33.03263254      31.52734996 
C      29.48961784      18.53089541      34.18249284 
C      19.73191416      34.98491526      24.57088236 
C      32.22745110      32.64774570      28.74239981 
C      28.63569817      30.29594279      14.69911415 
C      34.45121969      16.75642658      25.43526301 
C      35.80155256      21.93166825      22.01858227 
C      17.63333563      12.77945475      25.10951021 
C      21.84886386      35.11409286      19.67610788 
C      12.43082588      17.89299707      18.77957470 
C      18.97356586      29.59526585      35.41365844 
C      33.70753063      31.45825670      23.44725138 
C      35.92153914      28.55710437      22.21728554 
C      32.16666501      29.83333920      32.95540057 
C      21.48962027      12.24172804      23.01793727 
C      33.34531606      17.94040877      20.31088499 
C      28.20263923      12.97211856      17.98459290 
C      14.01092887      29.48813613      30.30422780 
C      33.09657383      20.81224861      31.23134619 
C      19.50820158      25.99663974      12.92683015 
C      15.88669285      28.26881726      16.17771580 
C      26.28169423      11.45408787      22.38858163 
C      15.10041327      33.76499602      27.08766919 
C      14.87688354      20.91621921      32.63193608 
C      21.75225563      15.07585627      14.61358338 
C      23.22905657      29.43452952      12.41839287 
C      20.08680664      21.08054054      12.87737403 
C      21.61416838      32.92038872      15.16204324 
C      24.17799653      35.47478832      27.64366740 
C      12.08779858      18.21436949      29.95679094 
C      25.94502667      34.64807721      22.21590014 
C      28.87365148      20.89297173      11.31498791 
C      16.44997487      21.78026624      15.29110263 
C      27.72011936      16.24912688      14.41574517 
C      17.28335873      12.65039447      30.21419178 
C      29.89952357      13.89694347      31.34390348 
C      27.14789102      35.48930592      30.34247091 
C      32.60040391      29.14325333      17.89396373 
C      25.82032615      14.98224899      34.22670334 
C      12.97851205      30.19733025      20.31387474 
C      11.95959744      26.97597956      26.79380105 
C      36.22617417      19.76823109      26.96889715 
C      30.65725436      24.71990320      14.64263115 
C      18.81818954      24.64377225      35.84529248 
C      36.50383047      24.69241398      26.01116856 
C      19.75022776      19.48805344      35.95990443 
C      32.44563364      25.72364309      32.31883704 
C      24.63218647      19.07974788      11.67925308 
C      15.83183529      33.62785584      21.17650442 
C      15.17452247      25.27081501      32.11808121 
C      10.76466105      27.46059063      21.72215583 
C      23.04236465      12.19526336      16.70419452 
C      12.94185916      24.46223050      17.41516994 
C      21.15466988      12.16864591      28.60630224 
C      16.54870124      16.11759423      33.41626358 
C      13.96822719      15.34429557      21.23615751 
C      13.20969138      14.86860639      26.57247045 
C      27.00059997      33.49955180      16.00564660 
C      31.52396783      13.40389886      25.57717405 
C      18.27872158      13.26142995      19.41086950 
C      28.54157306      34.46885660      25.73493121 
C      11.98998444      22.31951211      28.51870113 
H      22.14050421      14.01492244      32.87588727 
H      21.00292155      13.57471843      34.19660902 
H      20.47179812      13.52132228      32.47943043 
H      30.61326432      33.44828713      19.03784800 
H      30.30076247      33.77786955      20.77079543 
H      30.80421152      32.14248430      20.25634102 
H      24.31108942      24.84678954      37.01545387 
H      22.75034482      24.91682281      36.15256650 
H      22.92864512      23.86795567      37.60477727 
H      22.86183508      18.18331887      37.65334950 
H      24.15603066      19.40962079      37.44127120 
H      22.57445906      19.65434059      36.64980791 
H      11.08517508      18.90984676      26.09697451 
H      11.09373978      20.09029424      24.75559812 
H      10.09601340      18.60122266      24.63051679 
H      33.33434197      15.57301280      28.60677416 
H      32.91496570      15.33796565      30.33064008 
H      31.65886346      15.13596211      29.06439520 
H      30.73662762      12.67187270      22.02250922 
H      32.09273266      12.67775527      20.84144996 
H      32.41236635      12.97968943      22.57377626 
H      31.58819523      21.05726323      15.87567287 
H      32.21986423      19.73565795      16.91697685 
H      32.09160710      19.49328135      15.13816345 
H      28.13753365      22.42175881      35.61793337 
H      29.02287245      23.74050790      34.76467763 
H      27.23435011      23.67525456      34.70207104 
H      22.10233661      29.95845726      35.33662734 
H      22.25891146      28.88779966      36.77331016 
H      23.69820334      29.70471649      36.09752145 
H      12.65470583      32.23540062      25.18771091 
H      14.30089238      32.21420634      24.46897720 
H      12.87794955      31.80100625      23.46599926 
H      17.16622499      17.10584987      15.08585157 
H      17.86548207      16.19404096      16.45690442 
H      16.14456166      15.94849113      15.99839253 
H      32.57926636      24.74959742      17.95545368 
H      34.18290613      24.90355409      18.74036283 
H      33.84355263      23.51684011      17.65096713 
H      27.07464696      32.99393582      33.29450524 
H      25.70546685      32.44277009      34.31493600 
H      27.38625085      32.36214537      34.95097959 
H      21.50555649      34.09219792      31.52607421 
H      22.11249207      34.75128452      33.08259380 
H      23.21007356      34.60560678      31.66574700 
H      16.27599944      33.63386736      18.17750700 
H      18.05986296      33.77123508      18.03218478 
H      17.03933916      33.64930648      16.55831870 
H      11.17586966      22.70022875      20.43274360 
H      10.45159897      21.13212384      20.91412592 
H       9.54117996      22.66069416      21.17282165 
H      27.39974773      12.99524101      27.60523950 
H      26.28623191      11.79018717      28.31097334 
H      26.81805145      11.63466666      26.60120361 
H      35.80673996      28.88421263      28.57401202 
H      34.33713331      28.59431785      29.56853555 
H      34.92203625      27.32409557      28.44943221 
H      28.43733831      26.85720844      35.66540248 
H      29.08783096      28.29519119      34.81356078 
H      27.34555440      27.93019332      34.73715980 
H      22.22154426      25.60773282      10.18469976 
H      22.52327169      23.92334335       9.66236492 
H      21.39203129      24.25672215      11.01180787 
H      26.02067647      25.78037078      11.16555832 
H      26.61426404      27.40252179      11.64858613 
H      27.69968367      26.28008474      10.75110169 
H      17.99062684      32.84764405      32.54293981 
H      17.06517508      33.97645321      31.49474333 
H      16.97704902      32.20655381      31.20746078 
H      30.38127267      18.00226946      34.53780503 
H      29.75246920      19.54417711      33.86048217 
H      28.74994395      18.59234345      34.98985753 
H      18.82947169      34.37099001      24.50207158 
H      19.65819007      35.64432654      25.44400814 
H      19.84177332      35.58234817      23.65773639 
H      32.15746640      32.25689302      29.76312913 
H      33.03587921      32.13853261      28.20336044 
H      32.40673978      33.72897174      28.75864029 
H      29.36484261      31.11442047      14.68073123 
H      28.80530404      29.63438453      13.84173235 
H      27.61652821      30.70242197      14.64124134 
H      34.10799350      15.73073525      25.61557452 
H      35.52123335      16.74950005      25.19815479 
H      34.26378870      17.37252902      26.32222215 
H      35.11792685      21.69683324      21.19584692 
H      36.16746678      22.95854653      21.89612898 
H      36.64771795      21.23648949      22.02951069 
H      17.14430275      12.39176166      26.01055440 
H      16.95333307      13.47813961      24.61341443 
H      17.86848531      11.95000809      24.43164682 
H      22.68422841      35.23397426      18.97586702 
H      21.16263086      35.96354909      19.58567336 
H      22.24449188      35.04672587      20.69550541 
H      12.53432444      18.18175480      17.72684132 
H      13.20374273      17.15714026      19.02635695 
H      11.43269738      17.47688762      18.95638992 
H      18.93343657      30.42835051      36.12454446 
H      18.11296548      28.93199656      35.55895943 
H      19.89565466      29.02130958      35.55391792 
H      34.33845264      30.62321668      23.77575143 
H      34.16721733      31.97615923      22.59859171 
H      33.58456391      32.15918922      24.28214315 
H      36.30204440      28.08511532      21.30314719 
H      35.05717701      29.18053757      21.95808928 
H      36.71023234      29.16451331      22.67423773 
H      31.79291303      28.91572116      33.42001900 
H      33.20013811      29.67825331      32.62291264 
H      32.13518211      30.65781786      33.67649007 
H      21.25721874      11.69397045      23.93861845 
H      20.63646226      12.87352520      22.74461595 
H      21.71215927      11.54483303      22.20153279 
H      33.58427063      17.28843241      19.46182765 
H      34.25347548      18.44611126      20.65989523 
H      32.93091099      17.33365101      21.12014983 
H      27.43157136      12.75063237      17.23661224 
H      29.10569610      12.38424210      17.78474633 
H      27.82182316      12.74818468      18.98673880 
H      13.06035142      30.00883046      30.14515842 
H      13.91068856      28.42894616      30.04228382 
H      14.30084359      29.56884673      31.35862013 
H      32.99601746      20.27719957      32.18389671 
H      33.12263973      20.09013876      30.40989795 
H      34.02627664      21.39307285      31.23109982 
H      19.62772752      24.90707923      12.95380166 
H      18.49541064      26.25960067      13.25552813 
H      19.67627832      26.37030947      11.90977124 
H      15.91264742      28.97527560      17.01208910 
H      16.07486658      28.80620766      15.24029999 
H      14.90425774      27.78232632      16.14113515 
H      26.89844295      10.57060406      22.58720244 
H      25.63907323      11.67817897      23.24615226 
H      25.65709181      11.28262051      21.50334061 
H      14.38880266      33.86367829      26.26013046 
H      14.81124817      32.92956947      27.73544448 
H      15.12163732      34.69657082      27.66466966 
H      14.77292282      21.69874726      33.39261033 
H      13.93363607      20.36327333      32.54322209 
H      15.67191214      20.22064769      32.91711744 
H      21.96093904      15.67362488      13.71802905 
H      22.68508720      14.61583671      14.96423978 
H      21.00573730      14.30835842      14.38164892 
H      22.40804085      29.75811915      13.06715096 
H      23.44374122      30.21105831      11.67539096 
H      22.93927317      28.50745322      11.90908919 
H      19.07901246      20.65978598      12.78269498 
H      20.38443567      21.54796788      11.93093463 
H      20.80173414      20.28939744      13.12219228 
H      22.61599813      33.03922099      14.72967677 
H      20.87260046      33.43811233      14.54317254 
H      21.60426538      33.32173274      16.18104830 
H      24.33038845      36.22791517      28.42530145 
H      25.13472844      35.22252456      27.17032668 
H      23.49557527      35.87211033      26.88229531 
H      11.89409957      17.47757458      30.74482869 
H      12.26629235      19.19633219      30.40596942 
H      11.21619452      18.27207935      29.29404788 
H      26.02373520      35.26064160      21.31045082 
H      25.88090766      35.29081724      23.10141890 
H      26.82682618      34.00114559      22.29658256 
H      29.79520923      21.40140038      11.61158249 
H      29.07039693      19.82619288      11.15799501 
H      28.48111671      21.33862985      10.39379925 
H      15.53365951      21.18052320      15.32227159 
H      16.48627994      22.36793938      14.36581579 
H      17.32850295      21.12544274      15.34193212 
H      28.23121327      15.94643161      15.33580323 
H      27.82896165      15.47024749      13.65206412 
H      28.14212562      17.19611421      14.05403252 
H      16.26203358      12.25455232      30.24389527 
H      17.80965757      12.26155029      29.33718733 
H      17.81857233      12.35471579      31.12454987 
H      30.88506479      13.70131722      30.90569376 
H      29.93013874      14.82327516      31.92867162 
H      29.61782025      13.05762725      31.98909657 
H      26.93522421      35.66842421      29.28392981 
H      26.34113299      35.91299546      30.95289358 
H      28.09808616      35.96024180      30.61699212 
H      32.70742690      28.54610337      16.98076385 
H      31.60822935      29.60635923      17.90722978 
H      33.38013693      29.91259269      17.92803782 
H      26.56026803      15.78642764      34.15227995 
H      25.07951629      15.23288463      34.99535874 
H      26.31718270      14.03967234      34.48154874 
H      12.85331666      29.77510903      21.31633702 
H      13.26162325      31.25406630      20.39078297 
H      12.04952802      30.10494106      19.74003768 
H      12.24106605      27.49269167      25.87228772 
H      11.04300649      26.40203586      26.61444363 
H      11.78079624      27.71546707      27.58370020 
H      36.17898076      20.12264300      25.93325930 
H      37.06960314      20.23963791      27.48566103 
H      36.36497609      18.68050774      26.97353572 
H      30.00176237      25.59353948      14.70601513 
H      31.70320069      25.03595391      14.73997229 
H      30.50668694      24.22579049      13.67516265 
H      19.65868757      23.94749706      35.74862753 
H      18.93189399      25.24571245      36.75450563 
H      17.88296732      24.07421406      35.89539679 
H      36.71943759      25.68589774      25.60049353 
H      37.39131569      24.29743467      26.51995854 
H      36.21222536      24.01383388      25.20206480 
H      19.86293322      19.96243107      36.94108543 
H      18.74065372      19.06789251      35.87144417 
H      20.48516799      18.68125538      35.83871964 
H      32.61009701      24.65277741      32.49286097 
H      33.30660522      26.29552036      32.68386161 
H      31.53630823      26.03983618      32.84407514 
H      25.60628615      19.56421041      11.55628861 
H      24.76898678      18.05244298      12.03912168 
H      24.08183368      19.07832555      10.73139294 
H      14.91460995      33.57523063      21.77527310 
H      15.88954350      34.60493059      20.68272509 
H      15.82606942      32.82868797      20.42775515 
H      14.85731232      26.06137531      32.80847048 
H      14.35139973      24.57156158      31.93219337 
H      16.03013769      24.72922044      32.53941532 
H      11.10717910      27.05734100      20.76246752 
H       9.75692429      27.09592486      21.95052099 
H      10.75676736      28.55616433      21.68400092 
H      22.74377259      11.37064753      17.36317522 
H      22.19582448      12.88428575      16.59784599 
H      23.33889904      11.79658951      15.72836715 
H      12.69565686      23.39963292      17.30052258 
H      12.13027376      25.07888915      17.01370061 
H      13.88201282      24.67100971      16.89421508 
H      22.06212839      11.69290537      28.21502551 
H      20.68108703      11.50593779      29.33983882 
H      20.46473125      12.36316554      27.77567028 
H      16.48085554      15.29960599      32.69126501 
H      17.43642535      15.97566029      34.04348476 
H      15.64811840      16.14312846      34.04033299 
H      13.35900840      16.25790611      21.26579343 
H      13.74426393      14.76096967      20.33590043 
H      13.75690022      14.74299982      22.12884063 
H      13.00484818      13.81373172      26.78652202 
H      12.98185163      15.48859185      27.44659714 
H      12.60922116      15.20349467      25.71795909 
H      27.74283903      32.69532697      15.99537388 
H      27.00814375      34.02491819      15.04400063 
H      27.24870381      34.19817490      16.81310007 
H      31.82849725      14.08580602      24.77590639 
H      32.10250197      13.61808796      26.48394552 
H      31.68733203      12.36370942      25.27363211 
H      18.13736051      12.61207478      18.53948618 
H      17.91219006      12.75861654      20.31352633 
H      17.73550293      14.20309784      19.27685968 
H      28.53515755      35.17279068      24.89443753 
H      28.64941523      35.01582796      26.67880362 
H      29.38203923      33.77637646      25.63083922 
H      11.86310191      23.40896339      28.48284897 
H      11.01071031      21.82794361      28.55006137 
H      12.57200354      22.05328803      29.40820920 
