699
Properties=species:S:1:pos:R:3 i=80 optimized=T E=-11078.7020169028 pbc="F F F" jobid=279_84-Ag-30_1-000004-PBE
Au      33.21536298      25.49891735      26.37418797 
Au      32.01326199      29.56085500      21.61105320 
Ag      34.34754261      28.21203955      25.58459083 
Ag      29.98617705      15.09028215      19.83864510 
Au      34.05848527      19.60072220      23.58260760 
Au      27.47762262      23.44910142      12.94782247 
Au      18.20132863      33.22879795      28.25821853 
Ag      28.40380178      30.61579007      18.18388943 
Au      24.97967058      21.26122218      23.26630381 
Au      26.33163502      23.28857442      24.97809730 
Ag      28.27435098      25.16495167      23.69345235 
Au      23.73389183      21.59489577      29.08825847 
Au      23.30425964      27.86362106      27.00695854 
Au      26.96720375      23.12416630      22.05688893 
Ag      22.33824171      19.51127491      27.38073131 
Au      27.28860779      21.17508210      26.75202751 
Ag      22.08809460      21.51534331      22.73676738 
Ag      21.07721911      23.57412429      20.87805780 
Au      27.65271058      25.31633151      26.61614365 
Ag      19.93545636      24.01295088      26.71735041 
Au      25.54745894      21.06289225      20.39512342 
Au      24.26518361      25.73909574      28.85402257 
Au      23.84053711      27.71316714      24.08907945 
Au      26.16244357      27.61804946      27.67199041 
Au      20.83121558      21.83434992      28.44251188 
Au      22.82703245      23.70370624      27.21918549 
Ag      21.45824414      21.66864964      25.62219266 
Ag      19.48906834      19.77318866      26.88548509 
Au      25.85485376      19.13123844      25.10484324 
Au      25.20884137      23.59960368      30.78242476 
Ag      23.07968418      25.33303925      19.56199244 
Au      20.95989217      27.92952266      23.58993757 
Au      26.64319872      27.40905887      24.76525559 
Au      22.64617752      21.36648783      19.86784583 
Ag      21.92986870      25.85262946      25.37884407 
Au      27.14922543      25.53769895      29.51417998 
Au      20.16743386      19.66297915      24.03776123 
Au      25.95143294      25.13140458      20.17832033 
Ag      23.58803990      19.23702226      21.65634974 
Au      22.29045463      23.88436832      30.11417979 
Au      21.06756406      17.43972947      25.78902927 
Au      21.61179318      27.58577405      20.59265047 
Ag      24.43886944      27.41411050      21.23569371 
Au      24.61342183      23.11266031      18.52095055 
Ag      28.61445567      23.20599819      28.48475943 
Au      18.60623107      21.93915480      25.12985596 
Au      26.67289891      21.29310341      29.66028066 
Au      22.37408153      30.08046771      25.14293520 
Ag      27.26595076      27.16837192      21.83632944 
Ag      21.73065304      19.69482841      30.21513226 
Au      18.46086881      26.36641157      27.70536478 
Ag      23.10122903      21.66920441      31.98558974 
Au      21.64155553      23.38202821      17.91637683 
Au      17.07032287      24.26894289      26.23384339 
Au      27.50264991      22.81388851      19.05520642 
Au      23.90060172      17.14854440      26.32721993 
Au      23.20854420      17.41462257      29.23119174 
Au      25.17468785      29.79424798      25.80175734 
Au      21.68449422      17.26572365      22.84778659 
Au      28.84792652      18.83529568      25.71191738 
Au      22.83872604      29.78910858      22.24298353 
Au      25.38061633      25.37210303      23.10121206 
Au      20.13182103      25.59663776      18.95817723 
Au      29.53941811      27.22009848      25.43964841 
Ag      19.34324408      24.26598167      29.58513464 
Ag      17.96043033      22.15149485      27.98784631 
Au      19.93433256      28.32963127      29.32837507 
Ag      23.67430778      25.86624131      31.73073838 
Au      20.92558805      26.29172126      31.14265598 
Ag      26.45167267      19.01106091      22.18259575 
Au      24.56068578      19.44646566      30.93402700 
Ag      20.32096087      17.54691899      28.67627661 
Au      28.89139588      24.92772334      20.76034543 
Ag      19.51794393      30.23198791      24.60573979 
Au      25.69661025      29.62034996      22.82273737 
Ag      24.99746438      27.16671870      18.26491062 
Au      28.53217450      20.80916157      20.94563696 
Ag      29.01633660      27.50874245      28.31167708 
Ag      30.17075205      20.96265751      27.37994971 
Au      18.15706328      23.89944911      20.35700278 
Ag      17.73782077      19.71368569      20.71208784 
Ag      25.60889986      27.77120747      30.56708178 
Au      28.12973136      23.50831451      31.32547003 
Au      21.86505113      30.23414609      28.10918984 
Ag      21.73758166      24.06643653      32.94590796 
Au      18.69900539      27.89277661      20.10073025 
Au      16.26095286      21.96367943      21.71527277 
Au      30.53763336      25.14801471      27.17748889 
Au      23.42167675      23.52640546      24.35707725 
Au      19.98098206      29.99569629      21.66577870 
Au      16.52620319      20.03165678      26.42109294 
Au      26.76165233      17.04519297      26.91756675 
Au      29.88422305      25.41433589      30.14022577 
Ag      17.54801294      28.45572773      25.89539702 
Ag      16.15489173      26.35887430      24.33421853 
Au      28.50189093      29.21346009      23.43106144 
Ag      27.85595656      27.00070294      18.98916676 
Au      24.24552680      19.10876073      18.69029468 
Au      27.40342516      16.85705146      24.00876690 
Au      27.06945787      18.83450348      19.22004705 
Au      25.96083493      21.29625440      32.67830217 
Au      12.43178380      18.90897085      21.97258618 
Au      23.11432388      21.11878189      16.97204837 
Au      26.32049964      29.24034116      19.89104992 
Au      19.92979431      19.57197551      32.38691736 
Au      26.08648829      17.24228636      29.79127816 
Au      29.30728448      18.69595320      22.78164376 
Au      27.56619849      29.75124890      29.37016989 
Au      15.15509546      22.46000747      27.41746594 
Ag      26.15129780      20.85380342      17.27220826 
Au      24.50287386      23.76196644      33.52420326 
Au      23.63529724      25.12851424      16.50964900 
Au      17.50219311      17.94761189      28.18773410 
Au      19.04743526      30.45525310      27.48418891 
Au      23.50616802      29.45233636      19.34061472 
Au      22.49302640      25.58041752      22.46557921 
Au      16.05461873      20.13093383      29.26368918 
Au      27.49417553      19.17624478      31.39442732 
Au      29.11870195      29.01396660      20.64411365 
Ag      16.44256331      24.52077706      29.07236947 
Ag      32.09771210      22.83587086      26.17323231 
Au      16.58458377      21.71168414      18.90953646 
Au      24.83704554      31.65552097      20.77117200 
Au      21.91059775      31.72111462      20.33785412 
Au      20.72146646      25.34719115      16.10875984 
Ag      24.23995097      31.93936963      23.92947421 
Au      20.63795294      29.62961997      18.72040851 
Ag      23.20266660      15.05731263      21.52496319 
Au      30.34374619      22.58995194      19.59722650 
Au      25.14133953      22.84797927      15.52138173 
Ag      18.65725679      23.65414008      17.34938074 
Au      28.97112523      20.67089346      17.97716789 
Ag      17.54010650      22.51474793      30.94020969 
Au      17.11108863      28.68735943      28.75085061 
Au      27.95067600      16.78967416      21.07251443 
Au      15.64668315      26.72063874      27.19272112 
Au      18.68002143      15.64921838      27.11526827 
Au      19.71047222      15.40532868      23.88223270 
Ag      18.00875962      26.69880409      30.76805406 
Au      20.29150294      15.41326335      21.11257469 
Au      27.17865667      31.54801664      24.31938852 
Au      24.97517946      15.16622100      28.33934375 
Ag      24.03341471      23.33483180      21.45516169 
Au      20.03571605      21.23838102      16.45339905 
Ag      27.97995580      22.79971027      15.92607786 
Ag      31.49657402      20.30658641      21.78890206 
Au      26.68213902      31.82092784      27.60661114 
Au      25.73847158      14.89576998      25.18835520 
Au      28.72871223      16.29863243      28.92072705 
Au      26.05823489      14.91474914      22.27112703 
Ag      32.60437577      22.66126306      23.29796970 
Ag      25.62459217      30.51833298      31.41073699 
Ag      22.83497620      30.85660151      30.79098583 
Au      24.18324453      16.80561503      31.92403943 
Ag      31.35481045      17.90157981      24.69612713 
Au      17.14527483      25.96005535      18.59714554 
Au      31.46802379      23.15116493      28.91311685 
Au      29.43214981      16.06260005      25.97786362 
Au      15.55985669      29.23030335      23.91640343 
Ag      16.07125390      28.94922429      21.03057651 
Au      17.01358951      31.20392120      25.52679756 
Au      29.49769711      24.90890804      17.94361157 
Au      30.80093843      18.07560800      27.59840857 
Au      18.52685355      17.50435571      30.88185452 
Au      24.02431227      19.56764991      33.70716137 
Au      18.07865524      30.65815431      19.70861592 
Ag      17.45443655      31.06865152      22.61087273 
Au      14.18008966      27.10103592      22.36906843 
Au      32.68618437      20.00270244      26.27463981 
Ag      24.78727847      25.55771436      25.99193321 
Au      32.97460710      26.90679993      23.05805389 
Au      24.68094785      20.01749597      14.94244009 
Ag      19.98018249      31.00249465      30.18331091 
Au      31.73180862      27.81227453      27.23090393 
Au      23.59074694      28.56853403      32.55153449 
Ag      29.86601168      15.83223767      23.02990701 
Au      22.37917179      16.89955153      34.49582378 
Au      13.21279267      19.61827473      28.54405395 
Ag      24.14658880      27.82398820      15.56280527 
Au      15.14546807      17.41426318      30.82498787 
Au      25.72733727      25.56617665      14.71217548 
Au      28.82325713      30.59935668      32.38032222 
Au      22.66174142      30.04504693      16.70095915 
Au      21.86627304      21.71488307      34.88529211 
Ag      31.08263689      28.29307750      30.21695106 
Au      19.17559398      13.91593911      29.43460038 
Au      22.04582739      25.06693277      12.85692217 
Au      15.85105930      14.72228494      28.01166106 
Au      25.56407099      33.95991544      29.29406596 
Ag      26.61575411      14.60484103      30.92483511 
Au      28.51278371      13.33365361      24.00749306 
Ag      16.38439738      17.12026588      20.11889204 
Au      16.11715408      17.34740527      23.09476719 
Ag      20.89550548      15.75748270      17.55463703 
Ag      11.98918983      24.67138877      23.09908503 
Au      14.56929031      30.33191953      27.03150860 
Au      24.30324326      21.39037258      26.15965360 
Ag      14.88599997      19.91068589      20.40545016 
Au      25.38575439      31.15059493      18.03431098 
Au      28.75770684      20.33203725      14.49614052 
Au      30.22860538      27.07926925      22.59192673 
Ag      31.18403854      24.99768382      24.34867421 
Au      31.81749324      24.88625197      21.52818421 
Au      20.55413668      23.79234308      23.84254054 
Au      25.41342549      14.85934183      16.05603260 
Au      30.65460366      29.85396055      25.20261162 
Au      25.73253659      23.41094363      27.87259078 
Au      27.05297440      27.58458208      16.32133142 
Ag      20.87103213      31.37442756      33.08578026 
Au      17.71208617      24.05149996      23.32116163 
Au      23.00356001      19.34000772      24.49181842 
Au      27.83945779      20.98561241      23.86061467 
Au      19.61753809      25.88764241      21.97485608 
Au      24.97350936      30.86313358      14.80889476 
Au      25.16316985      19.32898267      27.97502287 
Ag      19.01733255      26.11615672      24.85160461 
Ag      20.47810260      28.16079682      26.44681623 
Au      21.36352836      25.99275468      28.22383219 
Au      29.23006888      23.09952062      25.56288368 
Au      19.20644415      21.77515372      22.18634730 
Au      24.54435575      17.04832263      23.42522690 
Au      22.83960754      28.13588958      29.90335453 
Au      20.72189963      19.53731344      21.11873070 
Ag      20.33255210      22.13387308      31.26752590 
Au      24.74254733      30.03161329      28.77094522 
Au      18.02694711      28.25199336      23.00841008 
Au      28.16197173      19.03924033      28.56548064 
Ag      18.89818853      20.07541788      29.74438710 
Au      29.84555263      22.83851743      22.65552258 
Au      19.63899556      21.60086744      19.24921212 
Au      18.26282833      17.70807866      25.22078443 
Au      15.68609025      22.15788315      24.55944760 
Ag      16.69324172      26.14909454      21.43553318 
Ag      26.56926538      24.91353565      17.33150224 
Au      28.00859385      29.53511059      26.36503348 
Au      17.21489360      19.86242847      23.58300969 
Au      18.83546569      17.63314072      22.32346592 
Au      30.71328223      20.78082688      24.48556081 
Au      22.15995811      27.37304128      17.65620113 
Ag      21.18310128      19.36789445      18.24666602 
Au      22.26356285      17.31938170      19.90428922 
Au      21.92533618      15.38764029      27.55495659 
Au      18.99456965      24.41442797      32.43164249 
Au      26.39377520      25.61703157      32.49738311 
Au      14.86501386      24.28697777      22.70524882 
Au      29.56227500      20.85028923      30.22105811 
Au      23.73775144      32.05334544      26.81878856 
Au      22.57169021      15.10897760      24.72419226 
Au      25.10349466      16.96024224      20.48808817 
Ag      28.38364997      27.83611333      31.28562317 
Ag      19.35808753      17.52534747      19.50925743 
Ag      27.69856734      31.31525628      21.51648999 
Ag      15.27244697      24.08932163      19.87977020 
Au      21.33177655      17.09008056      31.36337260 
Au      21.14294379      32.11516362      23.14139814 
Au      14.12599605      24.45862929      25.37780797 
Ag      22.34556824      22.93991669      14.86845400 
Au      30.68730989      26.85254952      19.61622370 
Au      18.28480899      19.48915247      17.82460824 
Au      22.93979766      17.90939663      16.58802605 
Au      15.53763676      17.43351112      26.04210992 
Au      30.21857556      30.14990988      28.08781478 
Ag      29.90374721      18.42463560      19.87274833 
Ag      13.54761671      21.71594031      22.61546794 
Au      30.49939977      17.56421468      31.00752751 
Ag      26.93026075      16.02257939      18.48252769 
Ag      20.79120413      32.31961609      26.32361010 
Ag      19.22308049      27.79939014      17.14741074 
Au      25.93724277      18.02927914      16.63612732 
Ag      14.45577603      19.53917595      24.35437239 
Ag      19.07362293      33.18598930      20.94442252 
Au      23.78340236      21.82585526      12.31824517 
Au      34.87274327      22.51645159      27.27146265 
Ag      28.92155204      32.39444528      29.57414968 
Au      19.29824187      31.17085718      16.52227031 
Ag      23.75730159      15.45777832      18.48554958 
Au      13.77576138      27.22831436      19.39136003 
Ag      21.36122358      26.87094629      34.07972962 
Au      19.74123267      28.60230479      32.16358557 
S      20.64849046      15.78425170      33.35969359 
S      28.55968124      32.62997799      19.58634699 
S      23.81252291      22.82025641      35.67876772 
S      24.07478390      18.07762331      35.62973159 
S      12.28781486      18.30602723      24.24355266 
S      32.28153051      17.48160745      29.46268212 
S      31.59453677      14.75470250      21.61576755 
S      30.01589591      19.34632113      16.21371499 
S      28.20627273      22.05492654      33.30025255 
S      23.40413455      28.03598812      34.90917655 
S      13.52118441      30.20205729      24.92412396 
S      16.43863745      17.88519708      17.75776983 
S      32.67267344      23.18211435      19.98605485 
S      26.79359478      30.88301909      33.55165948 
S      22.95103226      32.49173646      32.65334909 
S      17.20675687      31.46886307      17.58060568 
S      11.18253526      22.40453994      22.81429535 
S      25.05824237      13.23810708      26.86024562 
S      33.76984515      29.11605653      27.75121162 
S      28.33058622      26.65203707      33.51566319 
S      23.78285251      24.07502800      11.60604562 
S      27.47633364      25.80425913      13.01916170 
S      19.05719260      33.28426501      30.45559900 
S      28.83386707      17.57537634      32.68622594 
S      21.26491347      34.05742557      24.57846351 
S      31.02764793      32.45085236      28.20452442 
S      28.90589476      29.14971863      16.26317944 
S      33.51499101      17.30808992      23.61730526 
S      34.92491147      21.79663372      23.48483414 
S      19.05929621      13.75848893      25.53320417 
S      20.81558179      33.61585868      19.27666513 
S      12.57950671      19.37024574      19.66234769 
S      18.81263525      30.25088151      33.66799017 
S      31.72807880      31.09445894      23.41482646 
S      35.26899675      27.48369234      23.47575783 
S      31.05272042      30.33978999      31.66631577 
S      23.08917689      13.22380213      23.25076890 
S      32.24042377      19.21895512      19.67367613 
S      28.84240291      14.62185987      17.76909459 
S      15.44441749      30.43354758      29.22284922 
S      31.58334880      21.92593305      31.03529410 
S      20.27164895      26.22015836      13.87470111 
S      17.02801112      26.88429916      16.34612490 
S      27.36594781      12.86142335      21.99736618 
S      17.11630961      33.56866435      26.19224734 
S      15.27973890      21.55534201      31.13131667 
S      21.17812253      16.81591801      15.33861754 
S      24.68387836      29.00531974      13.40299336 
S      20.11570195      21.92278996      14.14983986 
S      21.21513409      31.25788896      15.15645940 
S      23.60538267      34.20067825      28.00003176 
S      13.32229313      17.39546302      29.33091305 
S      24.40498633      33.65017008      22.08297806 
S      27.65646127      21.13094741      12.56972060 
S      16.30528578      22.87008750      16.78563747 
S      26.26548552      16.56659383      14.67361256 
S      16.88423444      14.01747792      30.01372122 
S      28.69875174      14.02929415      29.79926802 
S      27.41458310      33.95716232      30.74590715 
S      32.62473684      28.36729594      19.63974284 
S      24.97808000      14.65677399      32.72142372 
S      14.25231385      29.53891202      19.42326012 
S      13.35247890      25.85927879      27.21041374 
S      34.65573702      20.21397381      27.70826478 
S      30.31371893      23.80386698      15.95552320 
S      19.17806204      25.76744515      34.50067840 
S      35.45496815      24.77418180      26.96474317 
S      19.76353377      20.65374912      34.56702443 
S      32.12831468      26.07817187      30.80679664 
S      23.73528913      19.50726885      12.73865246 
S      17.04342331      33.49455473      22.26025929 
S      15.59551115      26.10266347      30.82413080 
S      11.79915501      27.09801947      22.98710565 
S      24.45132761      13.25875985      17.49255393 
S      13.06448952      24.98941313      19.17233746 
S      21.46776554      13.52533287      29.06547986 
S      16.73900048      17.35464950      32.55664113 
S      15.55280899      15.40871290      21.76279288 
S      14.65398734      15.17333257      26.03318712 
S      25.32714659      32.73159410      16.21209648 
S      29.75642416      13.64007920      25.98402752 
S      20.26013479      13.99275018      19.13721831 
S      27.16667598      33.47205293      25.79316099 
S      12.80183010      21.78910245      27.74585565 
C      21.23368078      14.06632346      33.10443340 
C      30.34932451      32.93259976      19.88047111 
C      23.21169844      24.21670368      36.70951053 
C      23.30954154      18.91646945      37.07023021 
C      10.95559558      19.32817537      24.98058015 
C      32.62638871      15.69724803      29.21012190 
C      31.56689941      12.91938010      21.75357175 
C      31.67745537      20.10042851      16.01857398 
C      28.02055177      23.07777983      34.80644785 
C      22.91320389      29.56978733      35.78735348 
C      13.42900603      31.92172563      24.28833525 
C      16.93004015      16.47417554      16.68718367 
C      33.29389900      24.13144480      18.54704880 
C      26.67976364      32.64099220      34.05812991 
C      22.52348417      34.14822583      31.98217319 
C      17.05298612      33.29903735      17.58495331 
C      10.49928428      22.40156518      21.10632839 
C      26.51052483      12.22450715      27.32424210 
C      34.81463114      28.16632098      28.92659394 
C      27.71219900      27.71732083      34.87349685 
C      23.05963628      23.98927147       9.91552708 
C      26.68922069      26.37403951      11.46613329 
C      17.53514940      33.09841840      31.47105169 
C      29.54210473      18.52992436      34.08354207 
C      19.84614591      35.16944086      24.24768069 
C      32.54101479      32.50074297      29.23513721 
C      28.72460645      30.11827022      14.71602387 
C      34.53697059      16.57434512      24.95505342 
C      35.71466168      21.93663344      21.83334393 
C      17.44216154      13.10824073      24.97187973 
C      21.69888052      35.11490908      19.86256071 
C      12.57723789      17.74018061      18.81484923 
C      18.97327306      29.59158136      35.37552171 
C      33.40924117      31.54254869      23.98856644 
C      35.66665128      28.93259524      22.42091140 
C      31.92211723      29.83403350      33.20586710 
C      21.56520656      12.25028659      22.95377640 
C      33.39357627      17.82310321      19.97127211 
C      28.30896452      12.87496967      17.98758232 
C      14.17139738      29.63966010      30.27945704 
C      32.95838801      20.72214555      30.98435087 
C      18.76330531      25.36880179      13.26783292 
C      15.77869219      28.22125566      16.28482252 
C      26.27063663      11.44031823      22.37828607 
C      15.44533835      34.13574276      26.69586928 
C      15.28304265      20.61731802      32.70414139 
C      21.98475933      15.61825437      14.20454417 
C      23.10398661      29.27476672      12.50936058 
C      20.30412340      20.37703919      13.18427089 
C      21.68501707      33.02785590      15.29295238 
C      24.06004033      35.47031437      26.75844565 
C      11.85569699      17.27371784      30.43418665 
C      25.99307728      34.55971637      22.15650244 
C      28.97243194      21.01455463      11.28815646 
C      16.28375657      21.57976946      15.48551066 
C      28.05263810      16.22884078      14.45775741 
C      16.41728848      12.24396441      30.15030687 
C      29.88899068      13.84748994      31.18753509 
C      28.17433808      35.61184275      30.49697034 
C      32.39592236      29.54577628      18.25256992 
C      25.98766828      15.00390688      34.21644090 
C      12.90535750      30.29583893      20.41554539 
C      12.20903970      27.13423773      26.57192454 
C      36.11131801      19.50866060      26.84030876 
C      30.56973151      25.11165790      14.69716847 
C      19.29635342      24.65640677      35.95912262 
C      36.50923087      24.71713989      25.46582856 
C      19.69038635      19.30831761      35.81074430 
C      32.11764308      25.89373655      32.63257638 
C      25.02567922      18.75636758      11.67648989 
C      15.67187777      33.61087764      21.04222178 
C      15.29537905      25.25138389      32.42073083 
C      10.72471651      27.34088709      21.51699236 
C      23.01567837      12.53785560      16.59990908 
C      12.94224724      24.70456057      17.36263426 
C      21.47745573      12.04538951      27.98150482 
C      16.72080889      15.66802522      33.27114146 
C      13.72466644      15.28196347      21.70166908 
C      12.87532372      15.20287564      26.46928491 
C      27.03333842      33.34039011      15.92610559 
C      31.50639106      13.35350686      25.51383646 
C      18.50569106      13.54539764      18.82230165 
C      28.91390782      34.01033120      25.86634623 
C      12.23873840      22.70106500      29.23264305 
H      22.29665644      14.04150829      32.83944890 
H      21.06720591      13.51156127      34.03529415 
H      20.63387865      13.63271116      32.29402412 
H      30.81253388      33.25891283      18.94238948 
H      30.44290004      33.72856232      20.62860528 
H      30.85633610      32.03439428      20.25288624 
H      24.09325363      24.77889342      37.03994356 
H      22.55295780      24.88538894      36.14369785 
H      22.68344540      23.80805951      37.57823752 
H      23.01259013      18.15593311      37.80113695 
H      24.07210424      19.57471952      37.50306708 
H      22.44484482      19.51920216      36.77294526 
H      11.14208341      19.38163276      26.06076769 
H      10.94416582      20.33716280      24.55317751 
H       9.99659608      18.83357866      24.78837197 
H      33.36632993      15.61883633      28.40442272 
H      33.04596261      15.28765018      30.13607504 
H      31.71590140      15.15582627      28.93131902 
H      30.55779554      12.54280357      21.95461290 
H      31.94483107      12.49166609      20.81838394 
H      32.23142700      12.62766579      22.57551772 
H      31.60316738      21.18513626      15.88345303 
H      32.23594074      19.87079156      16.93579087 
H      32.16066051      19.63833781      15.15037806 
H      27.84291637      22.40356613      35.65231815 
H      28.95208514      23.63740388      34.95225080 
H      27.18660218      23.78309639      34.70500614 
H      22.14384441      30.12924558      35.23892384 
H      22.53684077      29.29668501      36.78033367 
H      23.80263586      30.20249021      35.89138808 
H      12.79217119      32.50985972      24.95841688 
H      14.42480939      32.37233202      24.21255683 
H      12.96932051      31.87173905      23.29384843 
H      16.89226860      16.81296983      15.64528387 
H      17.94420490      16.12271268      16.91241457 
H      16.21116313      15.66048696      16.83738541 
H      32.55940289      24.88132865      18.23021828 
H      34.22997486      24.61962622      18.84152395 
H      33.47449962      23.42210281      17.73095837 
H      26.97111866      33.31328481      33.24448288 
H      25.63360530      32.82787041      34.32928814 
H      27.32807944      32.79097238      34.92883132 
H      21.62146522      34.11550687      31.36247520 
H      22.36486521      34.82682182      32.82807269 
H      23.37283507      34.49579546      31.37960444 
H      16.13153766      33.55410085      18.12026078 
H      17.91355412      33.77120986      18.07147861 
H      16.97732239      33.63441705      16.54437548 
H      11.13264711      22.97504359      20.42095158 
H      10.43201584      21.36314883      20.76061229 
H       9.49838971      22.84709215      21.13907462 
H      27.38705525      12.83831827      27.54997543 
H      26.24141548      11.63382106      28.20812992 
H      26.73642577      11.55818377      26.48265172 
H      35.78169727      28.67885081      28.99260310 
H      34.32228754      28.16659700      29.90624397 
H      34.96473506      27.13306725      28.59790715 
H      27.64372702      27.10250875      35.77854781 
H      28.42410132      28.53625889      35.02849239 
H      26.72934572      28.13727341      34.63806081 
H      22.93771103      25.01448148       9.54757199 
H      23.76572360      23.44701395       9.27648730 
H      22.09338892      23.47729786       9.92100825 
H      25.81612912      25.76119009      11.22014299 
H      26.38260288      27.41562089      11.62407693 
H      27.43676029      26.31408264      10.66680132 
H      17.84433317      32.86362454      32.49665615 
H      16.99058336      34.04892422      31.45283287 
H      16.89726557      32.29585857      31.08606083 
H      30.38281510      17.96606549      34.50279717 
H      29.86832246      19.52351259      33.75945089 
H      28.75082327      18.63544763      34.83566027 
H      18.89068174      34.63795356      24.26581901 
H      19.84588606      35.93710524      25.03131719 
H      19.99054507      35.64151771      23.26858041 
H      32.34497495      32.13898435      30.24967039 
H      33.30906189      31.87700456      28.76231769 
H      32.87226035      33.54607630      29.26632385 
H      29.46281966      30.92907033      14.72654877 
H      28.92744192      29.45138973      13.86973491 
H      27.71120218      30.53183714      14.61433299 
H      34.27687771      15.50984525      25.00652767 
H      35.59804110      16.67758820      24.70269278 
H      34.33078109      17.04762217      25.92037959 
H      35.00376166      21.70580781      21.03283144 
H      36.05661460      22.97324732      21.72527225 
H      36.57364125      21.25830988      21.79007683 
H      16.91060712      12.69953110      25.84014389 
H      16.83304857      13.88912726      24.50539863 
H      17.64048940      12.31215372      24.24415795 
H      22.61197053      35.22637442      19.26615371 
H      21.04545910      35.98145740      19.70909578 
H      21.97410812      35.02820035      20.91859165 
H      12.85293570      17.92242340      17.76951501 
H      13.30156580      17.04941315      19.25814894 
H      11.56965486      17.31302601      18.86550122 
H      18.69577010      30.39391929      36.06928482 
H      18.28270787      28.74706195      35.47913413 
H      19.99031962      29.24940308      35.59037339 
H      33.97548984      30.65988745      24.31461723 
H      33.93709360      32.05069829      23.17328137 
H      33.28860962      32.22651358      24.83724641 
H      35.93778004      28.55583931      21.42780976 
H      34.80907557      29.60745061      22.32042425 
H      36.51774992      29.46207577      22.86396985 
H      31.47014777      28.93602491      33.63849745 
H      32.96671060      29.62823401      32.94254384 
H      31.88224554      30.65631240      33.92890112 
H      21.29068428      11.73312046      23.88035213 
H      20.73787792      12.89705348      22.63588207 
H      21.78548920      11.51860748      22.16720325 
H      33.51782948      17.28175447      19.02602688 
H      34.35867140      18.23222683      20.29236744 
H      33.02667992      17.13183336      20.73549295 
H      27.53576856      12.65402173      17.24194696 
H      29.17864503      12.22812934      17.82559618 
H      27.90453441      12.70257008      18.99062974 
H      13.27077386      30.26335229      30.27128251 
H      13.94455664      28.62507845      29.93671671 
H      14.58281876      29.58841817      31.29477319 
H      32.80419165      19.98839503      31.78483753 
H      33.01597984      20.20501152      30.02279448 
H      33.89000850      21.27503637      31.15512382 
H      18.86649184      24.28086477      13.34251477 
H      17.92916294      25.71507160      13.89112647 
H      18.60574343      25.66720317      12.22511719 
H      15.94099096      28.97351108      17.06160605 
H      15.85943153      28.69821713      15.30016635 
H      14.78101734      27.78252617      16.40696516 
H      26.89582952      10.56578760      22.58928191 
H      25.61274044      11.66266539      23.22450293 
H      25.66086976      11.25727858      21.48522922 
H      14.87143293      34.31427349      25.77873757 
H      14.93939750      33.38425828      27.31239800 
H      15.54992466      35.07478534      27.25106046 
H      14.96176708      21.31022040      33.49147808 
H      14.57610982      19.78221634      32.62811830 
H      16.27696447      20.22658190      32.94386404 
H      22.29913625      16.16719805      13.30853317 
H      22.86560111      15.15454644      14.66626077 
H      21.25459487      14.84872935      13.92837000 
H      22.33286558      29.68290233      13.17107704 
H      23.28326633      29.96579527      11.67786008 
H      22.77822184      28.30059797      12.12332167 
H      19.30630384      19.95564863      13.01536409 
H      20.77261568      20.62723007      12.22477519 
H      20.92588654      19.64600105      13.71101023 
H      22.67727219      33.14398522      14.84078311 
H      20.94554969      33.61565325      14.73728682 
H      21.71049383      33.34797307      16.34021867 
H      24.08879776      36.44232110      27.26399897 
H      25.03220256      35.24705003      26.30564748 
H      23.27812291      35.46445713      25.98848329 
H      11.88624190      16.29492846      30.92637652 
H      11.85306919      18.06796748      31.18575031 
H      10.95748861      17.34790774      29.81031227 
H      26.31055996      34.82147149      21.14153938 
H      25.81438490      35.47059635      22.74155632 
H      26.77098658      33.96004902      22.64589422 
H      29.88317741      21.53124387      11.60354494 
H      29.18532329      19.95303956      11.11724058 
H      28.58538982      21.46848811      10.36887259 
H      15.40617197      20.93955835      15.62675548 
H      16.22075605      22.09503031      14.51900170 
H      17.19903396      20.97521227      15.51615605 
H      28.50389096      15.85593572      15.38450303 
H      28.15748194      15.48038473      13.66350167 
H      28.53166539      17.16905796      14.15644271 
H      15.33409707      12.19456303      30.31009531 
H      16.68528688      11.68896164      29.24702795 
H      16.93995337      11.82190854      31.01639538 
H      30.89269164      13.70430155      30.77084927 
H      29.88573328      14.72817781      31.83866299 
H      29.60348803      12.95745666      31.76027786 
H      28.38394656      35.80261511      29.44040522 
H      27.49413476      36.37853611      30.88486577 
H      29.11243990      35.63075429      31.06419182 
H      32.55342024      28.99179874      17.31968959 
H      31.38695468      29.97353389      18.25012357 
H      33.14512916      30.34001552      18.34655573 
H      26.74584846      15.76812059      34.01548191 
H      25.32016263      15.34587208      35.01628101 
H      26.47545214      14.06773322      34.51280046 
H      12.80434245      29.80607279      21.39031048 
H      13.16320356      31.35240713      20.55803478 
H      11.96511768      30.22409266      19.85723391 
H      12.57130182      27.57780691      25.64070186 
H      11.23633179      26.66080316      26.39288911 
H      12.11428578      27.91442186      27.33725448 
H      36.11646524      19.78854457      25.78086488 
H      37.01722987      19.87636493      27.33523867 
H      36.05802928      18.41826540      26.93781039 
H      29.82653741      25.90956440      14.79212240 
H      31.57468449      25.52706601      14.83681680 
H      30.48808957      24.65753163      13.70247135 
H      20.01446167      23.84329903      35.79445518 
H      19.60058474      25.25421455      36.82597184 
H      18.30343674      24.22770628      36.13967621 
H      36.69977127      25.74743208      25.14478230 
H      37.44950109      24.22602895      25.74155842 
H      36.01857739      24.15733946      24.66264384 
H      19.74483962      19.74726971      36.81355468 
H      18.72395425      18.80628932      35.67927324 
H      20.50015362      18.58012453      35.66300257 
H      32.23251138      24.82894710      32.86972852 
H      32.96771354      26.45527454      33.03830386 
H      31.18297298      26.26408704      33.06936680 
H      25.93733222      19.36234588      11.67716019 
H      25.24063406      17.76088406      12.08397910 
H      24.62362880      18.67205700      10.66029899 
H      14.72940694      33.63797187      21.60251450 
H      15.77399653      34.53791631      20.46680987 
H      15.66487696      32.75035417      20.36462067 
H      15.20827464      26.00843424      33.20847832 
H      14.36007076      24.68531589      32.34132678 
H      16.11559367      24.56362275      32.66678031 
H      11.08784659      26.77337527      20.65350226 
H       9.71400706      27.00995597      21.78329099 
H      10.70464497      28.40885119      21.27115330 
H      22.41613261      11.99777991      17.34223540 
H      22.39344713      13.30978407      16.13666156 
H      23.38149732      11.84248632      15.83627029 
H      12.67160441      23.65134795      17.22003101 
H      12.15764724      25.34781143      16.94985731 
H      13.89869663      24.89625024      16.86537310 
H      22.50063810      11.93447339      27.60062059 
H      21.20225229      11.17458802      28.58731067 
H      20.77870972      12.16719826      27.14644405 
H      16.66875925      14.90821124      32.48482333 
H      17.64868211      15.55066069      33.84430965 
H      15.85253293      15.58987867      33.93561539 
H      13.24948445      16.26787645      21.61087210 
H      13.44880225      14.65394334      20.84619037 
H      13.38560704      14.80806719      22.63071990 
H      12.53327534      14.16423763      26.54579952 
H      12.71047296      15.73168239      27.41335810 
H      12.35130981      15.71834977      25.65481676 
H      27.76026189      32.52245126      15.93072487 
H      27.05374674      33.86216607      14.96246993 
H      27.27199082      34.03456031      16.74027366 
H      31.79294395      13.96786860      24.65284686 
H      32.12250248      13.61674505      26.38186837 
H      31.63334453      12.29025006      25.28028248 
H      18.42622008      13.16167170      17.79863506 
H      18.22300029      12.76084085      19.53376304 
H      17.83828866      14.40450757      18.95199494 
H      29.10150106      34.64382960      24.99088945 
H      29.06551650      34.58920784      26.78490316 
H      29.59797778      33.15595966      25.85734517 
H      12.23543534      23.76729803      28.97418368 
H      11.22299654      22.36742493      29.47365645 
H      12.91090765      22.51973305      30.07913963 
