699
Properties=species:S:1:pos:R:3 i=153 optimized=T E=-11498.08626496 pbc="F F F" jobid=279_84-Ag-69_9-000005-PBE
Au      33.08543474      25.49582891      26.03297458 
Ag      31.95299004      29.29979737      21.65160439 
Au      34.48822021      28.24221701      25.47188016 
Ag      29.87578349      15.13175028      19.72956989 
Au      34.16646031      19.54800934      23.94049689 
Ag      27.03772245      23.38262152      13.27938175 
Ag      18.39075224      33.23407087      28.14140786 
Au      28.61974600      30.66790382      18.11139590 
Au      24.92734781      21.28459978      23.27168039 
Ag      26.30243639      23.27890086      24.92782878 
Ag      28.21166844      25.11809267      23.64349505 
Ag      23.82212866      21.66214002      29.00831150 
Ag      23.36005398      27.92449939      26.97645691 
Au      26.92245460      23.12449913      22.02000660 
Ag      22.38615630      19.60300297      27.41557602 
Ag      27.23037641      21.15405919      26.73846039 
Ag      22.06175878      21.55041714      22.73985233 
Ag      21.06327542      23.60918138      20.87560081 
Au      27.65276028      25.30530859      26.54200619 
Ag      20.01145206      24.06370907      26.67769703 
Ag      25.50530211      21.07457446      20.37131082 
Ag      24.28884222      25.79203783      28.78925400 
Au      23.87022440      27.72007511      24.07493405 
Ag      26.20172382      27.63602139      27.60066308 
Au      20.91558609      21.90224036      28.43477672 
Ag      22.88760922      23.75692811      27.19518049 
Ag      21.48596222      21.72657717      25.60556369 
Ag      19.50551899      19.88248462      26.85520442 
Ag      25.86362859      19.13982110      25.10295230 
Ag      25.23195853      23.65027317      30.70553837 
Au      23.02600742      25.38271817      19.62898609 
Ag      21.01605770      27.95914644      23.54250597 
Au      26.70730342      27.39865408      24.71592632 
Au      22.61291443      21.38355135      19.85323945 
Ag      21.97188364      25.89643823      25.36624685 
Au      27.14098181      25.50073464      29.47577015 
Ag      20.13944864      19.70999651      24.01917209 
Ag      25.91281164      25.13190331      20.19840762 
Au      23.52652521      19.23047531      21.66981952 
Au      22.32534415      23.97311167      30.00835521 
Au      21.01466115      17.54053451      25.80344856 
Au      21.56728832      27.65991070      20.66217392 
Ag      24.43629472      27.47180943      21.22975642 
Au      24.55245298      23.12289877      18.55253366 
Au      28.62369410      23.14979095      28.40956570 
Ag      18.61686322      22.00335579      25.07845226 
Ag      26.71102064      21.27356554      29.60529487 
Ag      22.39521888      30.05766246      25.12617440 
Ag      27.26658940      27.20780808      21.81582832 
Ag      21.79882396      19.75080260      30.32494514 
Ag      18.50143316      26.42189226      27.68664104 
Ag      23.16667263      21.85407885      31.81055574 
Ag      21.63824582      23.41814458      17.94642098 
Ag      17.12842208      24.35519995      26.14181081 
Ag      27.47423472      22.85863889      19.11712271 
Au      23.89860907      17.24418501      26.33591324 
Au      23.29708559      17.51325146      29.24328690 
Ag      25.26823402      29.77022269      25.73639932 
Au      21.63521766      17.28454203      22.91661460 
Ag      28.77088936      18.83962975      25.66485882 
Ag      22.87805335      29.83388407      22.24101202 
Ag      25.35599681      25.37802623      23.06377184 
Ag      20.11173969      25.66241764      18.97456215 
Ag      29.60462283      27.17132427      25.31153677 
Ag      19.40555918      24.25843613      29.55555436 
Ag      18.05356891      22.23737588      27.92938367 
Au      19.99411963      28.41134143      29.27668081 
Ag      23.74619118      25.90666575      31.64143658 
Au      20.94296455      26.32203549      31.07895367 
Au      26.40830589      19.01435707      22.18001681 
Au      24.68587332      19.53652069      30.85341581 
Ag      20.37801221      17.74529664      28.66507085 
Ag      28.87847632      24.88055387      20.74958081 
Ag      19.56313254      30.26582158      24.59473666 
Au      25.77867179      29.56539191      22.80454408 
Au      24.99592506      27.17382066      18.30842119 
Au      28.43083970      20.79874371      20.90410533 
Ag      29.04804246      27.41708314      28.20868546 
Ag      30.09815774      20.94141593      27.32156586 
Ag      18.18148914      23.94232209      20.31323846 
Au      17.77740219      19.73564993      20.61810453 
Au      25.65115558      27.79218868      30.47551935 
Au      28.09219815      23.41258937      31.29295192 
Ag      21.92447851      30.21695210      28.06755624 
Ag      21.74712625      24.22811344      32.86118839 
Ag      18.68794070      27.95570560      20.08132204 
Ag      16.33326412      22.01876572      21.66665970 
Ag      30.48435894      25.08302513      27.11836377 
Ag      23.42413549      23.55932099      24.34272660 
Au      20.04452238      30.01689991      21.64089240 
Ag      16.63415907      20.11905197      26.35807982 
Ag      26.73399076      17.03312566      26.91311092 
Au      29.89701344      25.23659558      29.98810256 
Ag      17.61271280      28.49426128      25.90163106 
Ag      16.27765605      26.39548618      24.27559211 
Ag      28.59277397      29.20953822      23.39379438 
Ag      27.84177922      26.90830606      19.00639425 
Au      24.09359030      19.08849437      18.66258518 
Au      27.39798468      16.83294440      23.98334429 
Ag      26.94348520      18.74922473      19.28258478 
Ag      25.96702871      21.44098192      32.47734950 
Ag      12.64101837      18.89962505      22.02491351 
Ag      23.14142894      21.13436701      16.89186695 
Ag      26.33314864      29.23272527      19.83480835 
Ag      19.91247995      19.55969659      32.44906418 
Ag      26.13089461      17.19129939      29.74017696 
Ag      29.26067946      18.72385720      22.78813723 
Ag      27.64261247      29.69597465      29.31516842 
Au      15.29769352      22.50153870      27.37226226 
Ag      26.06598459      20.84790741      17.42611272 
Au      24.49962440      23.85489613      33.49780369 
Ag      23.63210405      25.17205099      16.63079756 
Ag      17.54255862      17.96787190      28.12739630 
Ag      19.12913335      30.49379876      27.44271046 
Ag      23.50895120      29.49807835      19.31700983 
Ag      22.48089186      25.62714030      22.48699134 
Ag      16.11967582      20.20993633      29.24786728 
Ag      27.49019348      19.13221555      31.39260640 
Ag      29.15141563      28.98379754      20.54422950 
Au      16.54331255      24.51450061      28.97624630 
Ag      32.00701782      22.82526428      26.14702872 
Au      16.73408065      21.66197885      18.82572563 
Au      24.83370526      31.55196517      20.75419497 
Ag      21.95123517      31.80204724      20.28052199 
Ag      20.76942213      25.44885161      16.15732660 
Au      24.28297486      31.90533160      23.97868064 
Au      20.63891215      29.69690757      18.77722948 
Ag      23.17045625      15.10106906      21.69882318 
Ag      30.38407473      22.53499158      19.65252563 
Ag      25.07480456      22.90369824      15.61512413 
Ag      18.78967316      23.67345906      17.35160666 
Au      28.89273485      20.52972521      18.12644549 
Ag      17.55074091      22.44173501      30.87709747 
Ag      17.19939034      28.78758212      28.77171454 
Ag      27.86938496      16.73678634      21.13794761 
Ag      15.62161424      26.84968028      27.13117998 
Ag      18.95050973      15.68374335      27.02129840 
Ag      19.66992755      15.54101620      24.06140928 
Ag      18.13892502      26.71017060      30.66762156 
Ag      20.30215470      15.41489117      21.22158764 
Au      27.23973201      31.54508999      24.30785403 
Ag      24.69884868      15.16780198      28.28805908 
Ag      23.99936484      23.36127643      21.45949587 
Au      20.19596261      21.21719218      16.33190786 
Au      27.86497162      22.70157693      16.10299798 
Au      31.35465871      20.43250732      21.74011053 
Au      26.86250591      31.68714293      27.49558915 
Au      25.76858555      14.93283274      25.22689252 
Ag      28.67669057      16.17245093      28.81308044 
Ag      26.01073054      14.85052720      22.27963542 
Au      32.53094751      22.58039873      23.32912110 
Ag      25.69843223      30.55307867      31.37032731 
Ag      22.93317458      30.89608147      30.74238699 
Ag      24.24735725      16.91014228      31.88616350 
Ag      31.30810964      17.91842714      24.72200257 
Ag      17.16297747      26.07745022      18.53325631 
Ag      31.61765776      22.98016142      28.98220204 
Ag      29.35113890      16.06584437      25.94009124 
Au      15.63819807      29.26774391      23.95120195 
Ag      16.10869577      28.99285466      21.08209362 
Au      17.07655882      31.26928390      25.54892712 
Ag      29.40924478      24.78901471      17.92801927 
Ag      30.68386741      18.05989118      27.58036784 
Au      18.58407265      17.54153088      30.81884174 
Ag      22.80835373      19.34261824      33.05417482 
Ag      18.09732188      30.75543230      19.69971536 
Ag      17.51641120      31.05856796      22.61557061 
Au      14.23759905      27.14970389      22.45534197 
Ag      32.60965953      19.97747182      26.40383774 
Ag      24.80226254      25.59396722      25.94986783 
Ag      32.81796652      26.81168320      23.27704730 
Ag      25.02821792      19.99153968      14.99966520 
Ag      20.05918452      31.07512921      30.11984973 
Ag      31.74516067      27.77208432      27.12016503 
Au      23.85325249      28.58898303      32.50838735 
Ag      29.92657722      15.94999715      22.99740834 
Ag      22.08187246      16.78184307      34.27363560 
Au      13.57058827      19.33727726      28.12990523 
Au      24.08941862      27.90110037      15.61211660 
Ag      15.64061413      17.43122500      30.47151447 
Au      25.68785249      25.64101133      14.71764695 
Au      29.25421068      30.42970518      32.09560158 
Ag      22.57663708      30.13055326      16.67240100 
Ag      21.33918684      21.71172536      34.30547723 
Ag      31.17558467      27.93591653      30.10803621 
Ag      19.85825111      15.05038489      29.78263253 
Ag      22.83819281      25.66364646      13.80675584 
Au      16.34439044      14.85002928      28.07858993 
Ag      25.02274090      32.79684968      29.47841117 
Ag      26.71133321      14.83318446      31.42926117 
Ag      28.39892598      13.63688789      24.09270877 
Au      16.26275458      17.19218736      19.39369868 
Au      16.22875198      17.33942904      23.25116058 
Ag      20.82615291      15.41340013      17.91728884 
Ag      12.03439103      24.55536417      23.18247269 
Ag      14.80609067      29.99011445      27.02992510 
Au      24.36818684      21.42823278      26.18527817 
Ag      15.00237882      19.86934182      20.28668613 
Ag      25.38328102      31.21820582      18.01686317 
Au      28.11503025      20.20692060      14.53066085 
Ag      30.13122234      26.97930179      22.44393389 
Ag      31.02701529      24.87866244      24.23616432 
Ag      31.76271936      24.75931269      21.47334731 
Ag      20.55391160      23.84509084      23.79382872 
Ag      25.19726134      14.84059179      16.21133279 
Ag      30.73123647      29.82429344      25.17887967 
Ag      25.75121509      23.46383593      27.81938794 
Ag      26.96592318      27.69405661      16.38344103 
Ag      20.91859163      31.41755984      33.02087670 
Ag      17.71032365      24.08519717      23.23709940 
Au      22.98598208      19.39615272      24.52836148 
Au      27.80019140      21.00212969      23.86689558 
Ag      19.59946415      25.91799440      21.92892923 
Ag      24.99519970      30.87449136      14.97316467 
Ag      25.25354508      19.31493475      27.94665570 
Au      19.09244436      26.13827235      24.83453983 
Ag      20.52384816      28.19630900      26.39933263 
Ag      21.42207323      26.07547196      28.20837887 
Ag      29.15258626      23.02948014      25.53419583 
Au      19.20583849      21.82800618      22.19425072 
Ag      24.55362420      17.05987274      23.48830982 
Ag      22.84855733      28.16769314      29.86414739 
Au      20.68259037      19.56520239      21.13072269 
Ag      20.37182167      22.16234962      31.29664747 
Ag      24.80047850      29.96984863      28.67226478 
Ag      18.10269647      28.26076479      22.97794847 
Ag      28.12962920      18.96406173      28.52969954 
Ag      18.96493964      20.12607170      29.70543363 
Ag      29.78170465      22.77183265      22.62844084 
Ag      19.67562680      21.62866138      19.21317530 
Ag      18.18306675      17.85323821      25.23509861 
Ag      15.74509249      22.27201708      24.49989791 
Ag      16.69112957      26.18277289      21.33709716 
Ag      26.52855486      24.90988838      17.32556508 
Au      28.14461528      29.44094634      26.30203248 
Ag      17.25258478      19.98409557      23.50166887 
Ag      18.86730206      17.69392681      22.36279131 
Ag      30.66150978      20.72922451      24.49866234 
Au      22.16601109      27.47416861      17.73018269 
Au      21.23005037      19.38066455      18.21774655 
Ag      22.17926543      17.25171088      19.93900846 
Ag      21.87200641      15.53547363      27.56988095 
Ag      18.98209028      24.44088443      32.36757080 
Ag      26.46145002      25.62488272      32.47893254 
Ag      14.90276300      24.32577873      22.67819693 
Au      29.57712713      20.78416018      30.11741072 
Au      23.83551827      31.96976316      26.76243781 
Ag      22.58038705      15.19091205      24.74810991 
Au      24.99631534      17.00045364      20.53274994 
Au      28.44034576      27.70121632      31.14017045 
Au      19.34276479      17.50538514      19.52736802 
Ag      27.68284889      31.24183108      21.52213322 
Ag      15.33604318      24.05358705      19.85657054 
Ag      21.37343823      17.07128523      31.39113302 
Au      21.14846615      32.12242675      23.12234397 
Au      14.28084757      24.63233518      25.38735756 
Ag      22.24243343      23.10731890      15.04568247 
Ag      30.66074644      26.77911437      19.57667073 
Au      18.44159700      19.45795104      17.63961334 
Ag      22.87598205      18.32339816      16.12285710 
Ag      15.43397645      17.56636645      26.09018067 
Ag      30.29742683      30.02489260      28.10288195 
Ag      29.81817332      18.35348652      19.92617297 
Ag      13.68320656      21.71949275      22.53370373 
Ag      30.40894071      17.80352371      30.62176092 
Au      26.75376435      15.87503788      18.68663930 
Ag      20.93797821      32.36655829      26.29363313 
Ag      19.34391936      27.85567178      17.06347089 
Ag      25.77191448      17.86741108      16.77097637 
Ag      14.57586545      19.59639318      24.27821112 
Ag      19.06632365      33.26974275      20.94328661 
Ag      23.80911599      21.93163853      12.91464031 
Au      34.53334258      22.64902283      27.68805914 
Ag      28.81613681      32.56321685      29.56820489 
Ag      19.50571940      31.27562111      16.60741762 
Ag      23.78739048      15.10877638      18.86237770 
Ag      14.15891945      27.03817649      19.45416163 
Au      20.92098645      26.81259384      34.29973646 
Ag      19.85295737      28.68923769      32.10592281 
S      20.61047170      15.30457669      33.09251592 
S      28.55822827      32.52707461      19.58348292 
S      23.38739659      22.63421960      35.36154574 
S      23.54260637      18.40307199      35.27251663 
S      12.56309750      18.08848312      24.28989172 
S      32.36966702      17.31434585      29.23029938 
S      31.52038073      14.83257433      21.47270336 
S      29.49072346      19.17468770      16.16169110 
S      28.24538817      22.02245016      33.30959730 
S      23.01342088      27.87373440      34.69408658 
S      13.50734915      29.98709206      24.97794012 
S      16.38627846      18.16814475      17.22317259 
S      32.77269349      23.25095544      19.76749132 
S      27.25139081      30.76581790      33.28994201 
S      23.07530816      32.43924314      32.72822338 
S      17.29523068      31.60591109      17.52312630 
S      11.30412052      22.26299872      22.92211218 
S      25.12948708      13.19257976      26.78850674 
S      33.77058503      29.27589880      27.46398505 
S      28.68498648      26.47689137      33.28990347 
S      23.77129657      24.18292192      12.01225662 
S      27.49176219      25.79563931      13.06264487 
S      19.34332299      33.42559789      30.34508690 
S      29.01289651      17.60182108      32.60845918 
S      21.22324674      34.12814965      24.49301374 
S      30.81904053      32.42322194      28.18670911 
S      29.00895650      29.09873921      16.37410627 
S      33.65445550      17.25840015      24.11748637 
S      34.86099967      21.78852813      23.65573764 
S      19.37507215      13.62489694      25.59568134 
S      20.79596511      33.77973188      19.32597111 
S      12.62598892      19.54096725      19.71023974 
S      18.78453330      30.41520360      33.51209236 
S      31.74356424      31.06989417      23.30485256 
S      35.26398449      27.28320502      23.45879567 
S      31.48389184      30.05144505      31.38834479 
S      23.22645626      13.22349923      23.33328392 
S      32.18373736      19.16472717      19.81060693 
S      28.61125939      14.64685791      17.71185590 
S      15.50684457      30.51440570      29.28870369 
S      31.54473554      21.72817187      31.20370580 
S      20.71518026      26.93076217      14.16202660 
S      17.15509548      27.02342467      16.23501038 
S      27.51651198      12.90481418      21.94338602 
S      16.89821869      33.59841074      26.28015548 
S      15.23656851      21.59859775      31.16970820 
S      21.11977634      16.58584746      15.81112403 
S      24.66785280      29.01201441      13.48095155 
S      19.91387640      22.43272478      14.23920204 
S      21.39002288      31.66142825      15.13805015 
S      23.05938065      33.79768893      28.20939512 
S      13.62251264      17.20049200      29.13333899 
S      24.32517279      33.53787625      22.12575882 
S      27.03277149      21.03343978      12.59164286 
S      16.36925957      23.10376698      16.89720234 
S      25.90607753      16.54120122      14.66245040 
S      17.50709278      14.18182126      30.01691571 
S      28.52119531      14.04101533      30.06454824 
S      26.98422702      33.76048107      30.64794960 
S      32.75176841      28.12704524      19.67430495 
S      25.13931750      15.05930041      33.23873973 
S      14.43081643      29.45182321      19.32127893 
S      13.30706908      25.83158380      27.29103590 
S      34.41715117      20.33539689      28.08582132 
S      30.26185286      23.41971858      16.02482329 
S      18.75436547      25.85383579      34.42374108 
S      35.08681305      24.91787759      27.35889450 
S      19.02532338      20.84903867      34.39351986 
S      32.28790367      25.61385807      30.31906934 
S      23.32446489      19.55597059      13.23713294 
S      16.99189766      33.44415797      22.18735884 
S      15.69654926      26.22760593      30.54298086 
S      11.85027241      26.96345588      22.95988402 
S      24.33931231      13.06404695      17.59653907 
S      13.08768140      24.86840796      19.21344535 
S      22.05235427      13.84039073      29.35176155 
S      16.88462577      17.44622150      32.60026280 
S      15.84662914      15.85979066      21.31746767 
S      15.09296156      15.09992646      26.09525864 
S      25.44265141      32.88450896      16.20759246 
S      29.81995183      13.63683840      26.07240846 
S      20.19906636      13.64990365      19.49092730 
S      27.16688060      33.50856584      25.78330506 
S      13.05458260      21.49239837      27.30680612 
C      21.55929804      13.73117077      33.02819248 
C      30.31896573      32.93641415      19.91513032 
C      22.86014112      23.91545176      36.56911720 
C      22.68071357      19.17915868      36.69631806 
C      11.14075901      18.97871517      25.03834201 
C      32.46859989      15.48092074      29.13861982 
C      31.48150045      13.00784449      21.70463017 
C      31.18290545      19.74478545      15.74541571 
C      28.01967700      23.07951779      34.78881539 
C      22.63275340      29.35794582      35.70042895 
C      13.33406260      31.75690158      24.51476340 
C      16.90741555      16.79111285      16.12555930 
C      33.24112694      24.28205377      18.32509701 
C      27.26613869      32.46610035      33.97479337 
C      22.71003037      34.15780477      32.18892862 
C      17.17411838      33.44104030      17.52900818 
C      10.51743445      22.31342370      21.25782440 
C      26.62440233      12.26912363      27.30536478 
C      34.80425258      28.53810860      28.78995740 
C      28.39964622      27.60895876      34.70478964 
C      22.43029683      24.13048629      10.75153062 
C      26.73531795      26.38530728      11.49973744 
C      17.82095180      33.37940515      31.38176340 
C      29.87036337      18.60792362      33.88635811 
C      19.66981594      35.06600301      24.24287980 
C      32.33954162      32.73069860      29.16556003 
C      28.95284524      30.06685885      14.81312532 
C      34.47001578      16.65236321      25.64782509 
C      35.62064098      21.82699225      21.98444799 
C      17.84145215      12.70965411      25.16581327 
C      21.64332402      35.27384398      19.98050541 
C      12.52531412      18.00410890      18.70446434 
C      18.80469529      29.85514837      35.26317274 
C      33.44881951      31.56010168      23.78284910 
C      35.72005912      28.67385214      22.35020895 
C      32.30164318      29.46335044      32.92815435 
C      21.77284063      12.17992940      22.91282056 
C      33.35929327      17.88721334      20.39431654 
C      28.19765964      12.87054055      17.95080996 
C      14.24780208      29.79115047      30.41542403 
C      32.85769368      20.46691935      31.39673836 
C      19.42051055      26.20131182      13.08322061 
C      15.95073866      28.39758669      16.07616954 
C      26.49948694      11.41556816      22.30184807 
C      15.28431665      33.87449205      27.11538981 
C      15.19768380      20.66609430      32.75110961 
C      21.73347985      15.38301237      14.56700450 
C      23.12924929      29.44581650      12.57781654 
C      19.87819513      21.17415651      12.90196371 
C      21.84279570      33.39377896      15.55746537 
C      23.66233573      35.30325491      27.34810292 
C      12.24396473      17.32086586      30.34916686 
C      25.88487778      34.49595497      22.20088714 
C      28.30293660      20.84418765      11.27005651 
C      16.25652597      21.94823429      15.47715873 
C      27.67505131      16.18265601      14.32530615 
C      17.69987978      12.36871727      29.77645672 
C      29.88150924      13.88027606      31.29136578 
C      27.08226991      35.43867685      29.89863889 
C      32.71529365      29.35352843      18.30285886 
C      26.15620415      15.80579376      34.57790542 
C      12.97677268      30.13731476      20.21484596 
C      12.00536724      26.96515966      26.67780295 
C      36.01790450      19.72928347      27.42003984 
C      30.55665369      24.55345927      14.61392898 
C      18.79428085      24.72151309      35.86993538 
C      36.44677586      24.79205574      26.13033134 
C      18.83450762      19.62371635      35.75234786 
C      32.53548358      25.27672941      32.10654449 
C      24.20053544      18.62087972      11.92121129 
C      15.63231499      33.48238016      20.95075504 
C      15.21632934      25.39014316      32.10266563 
C      10.83982146      27.14988375      21.43761568 
C      22.83435747      12.39129010      16.78494335 
C      12.87077562      24.57549495      17.41264736 
C      21.72225966      12.24211897      28.50830761 
C      16.84081902      15.74298539      33.28077074 
C      14.06250981      15.44374714      21.25958816 
C      13.34820091      14.70598545      26.49766536 
C      27.18478607      33.37368380      15.89177851 
C      31.53952818      13.38795518      25.47246506 
C      18.41546976      13.33625246      19.16690011 
C      28.85783523      34.21158170      25.83829686 
C      12.21230868      22.28556462      28.73154903 
H      22.63916229      13.90679961      33.07893090 
H      21.24517669      13.12085694      33.88285048 
H      21.32165512      13.21901774      32.08870483 
H      30.80603722      33.21248180      18.97383173 
H      30.32420772      33.79459445      20.59796040 
H      30.84815061      32.10227372      20.38944844 
H      23.75499087      24.28515409      37.08342833 
H      22.35350057      24.75462187      36.07686994 
H      22.18602512      23.44899081      37.29661451 
H      22.70647104      18.48380031      37.54277618 
H      23.22462494      20.09734763      36.94784203 
H      21.64351230      19.43575318      36.46077635 
H      11.28450997      18.99235651      26.12614732 
H      11.06798535      20.00662836      24.66567080 
H      10.22600728      18.42827242      24.79049131 
H      33.27512775      15.22745900      28.44003646 
H      32.71428958      15.08600406      30.13063265 
H      31.53116556      15.03695388      28.78369082 
H      30.46003099      12.64170621      21.85867523 
H      31.91492939      12.53822190      20.81448854 
H      32.09684139      12.76194439      22.57753716 
H      31.20824342      20.83451192      15.62174510 
H      31.83456788      19.45034953      16.57788915 
H      31.49873871      19.24347767      14.82355671 
H      27.98299322      22.41879836      35.66326320 
H      28.87288730      23.76335120      34.86342581 
H      27.09014721      23.66068827      34.72465566 
H      21.96285155      30.04621270      35.16834929 
H      22.17764977      29.03865219      36.64487499 
H      23.58428718      29.86478579      35.90063313 
H      12.68759378      32.25234452      25.24818271 
H      14.30790006      32.25704044      24.47225657 
H      12.86029661      31.79711283      23.52649731 
H      17.02542675      17.20531555      15.11704317 
H      17.85992971      16.35897940      16.45101383 
H      16.12040084      16.02877259      16.12354468 
H      32.40885978      24.91865353      17.99831707 
H      34.09192293      24.91358755      18.60401418 
H      33.52249313      23.61146812      17.50488685 
H      27.46572737      33.21040304      33.19739306 
H      26.27097183      32.64409010      34.40061757 
H      28.02407985      32.51664461      34.76409469 
H      21.89202856      34.18654103      31.46098223 
H      22.44113871      34.74571810      33.07384389 
H      23.62166499      34.56772756      31.73679725 
H      16.23826844      33.72048142      18.02614348 
H      18.02074140      33.90210971      18.05035109 
H      17.14761263      33.78719444      16.48961648 
H      11.10657378      22.91399141      20.55581881 
H      10.43950810      21.28769725      20.87833748 
H       9.51723820      22.74754652      21.36761599 
H      27.43565952      12.92974245      27.62465804 
H      26.33430619      11.62868373      28.14732205 
H      26.96435302      11.64735213      26.46872045 
H      35.82101106      28.93771057      28.70569370 
H      34.36388723      28.84485068      29.74704575 
H      34.82334000      27.44481049      28.72683442 
H      28.33523581      26.99337535      35.61027837 
H      29.24379638      28.30353432      34.78948078 
H      27.47908978      28.18707874      34.58198530 
H      22.32315244      25.13315858      10.32109068 
H      22.70850239      23.42452785       9.96080445 
H      21.47956058      23.82538973      11.20063447 
H      25.86935332      25.77162552      11.22754963 
H      26.42031006      27.42614321      11.64063571 
H      27.50140663      26.32444502      10.71742373 
H      18.11079146      33.14950335      32.41403440 
H      17.34927665      34.36752355      31.33756910 
H      17.11817927      32.61678306      31.02861678 
H      30.80800145      18.11064687      34.15851481 
H      30.06984061      19.62348980      33.52624380 
H      29.21813621      18.66504287      34.76574566 
H      18.78308720      34.42875481      24.30435027 
H      19.61596848      35.82880728      25.02938012 
H      19.70187464      35.55304069      23.26064589 
H      32.27000896      32.29457839      30.16656707 
H      33.18288223      32.27870452      28.63000250 
H      32.48123585      33.81544600      29.23432475 
H      29.75447931      30.81360614      14.81859948 
H      29.11632492      29.35644436      13.99350211 
H      27.98079190      30.55641764      14.67553960 
H      34.23954044      15.58258033      25.72388289 
H      35.55340092      16.78470775      25.55597110 
H      34.09734426      17.16956173      26.53963078 
H      34.91682658      21.48499760      21.21843432 
H      35.89180449      22.86996169      21.78052489 
H      36.52037707      21.20208514      21.99180771 
H      17.53638630      12.11218868      26.03308840 
H      17.02605015      13.38911239      24.89951556 
H      18.06485477      12.04370004      24.32416115 
H      22.51549855      35.46970565      19.34552630 
H      20.95508400      36.12478064      19.93006947 
H      21.98026395      35.12121781      21.01140070 
H      12.65763217      18.29022957      17.65441902 
H      13.31041083      17.28902681      18.97401223 
H      11.53781743      17.55008202      18.84151887 
H      18.77684758      30.73293255      35.91813345 
H      17.90856080      29.24424148      35.42290425 
H      19.68636814      29.24555111      35.48723104 
H      34.00865590      30.71219226      24.20015360 
H      33.96831495      31.95841249      22.90400724 
H      33.36897712      32.34450698      24.54486171 
H      35.88098394      28.24847463      21.35259502 
H      34.92387827      29.42300097      22.28933001 
H      36.64448700      29.13450093      22.71538201 
H      31.77025615      28.60821624      33.35825521 
H      33.32573838      29.16694742      32.67075180 
H      32.33043404      30.28625146      33.65126714 
H      21.90498186      11.22137841      23.42912877 
H      20.84733514      12.65321540      23.26241378 
H      21.72434126      12.01807001      21.83083681 
H      33.56525984      17.21401185      19.55329301 
H      34.28600033      18.38122027      20.70978755 
H      32.95637743      17.30260695      21.22635836 
H      27.36109958      12.61318333      17.28971106 
H      29.08323552      12.28434568      17.67859224 
H      27.91986594      12.66648154      18.99107457 
H      13.29239656      30.30542275      30.26521074 
H      14.13117622      28.71606957      30.24199221 
H      14.59455355      29.95220616      31.44322243 
H      32.55985210      19.76674570      32.18682141 
H      33.05278794      19.91947285      30.47079204 
H      33.77353118      20.99056577      31.69776812 
H      19.50747610      25.10942605      13.04173737 
H      18.44345086      26.46878496      13.50574607 
H      19.52049452      26.62547764      12.07748017 
H      15.99438826      29.09188727      16.92012227 
H      16.17592785      28.94353265      15.15274253 
H      14.94385401      27.96803674      16.01410434 
H      27.15019719      10.61349735      22.66655562 
H      25.71963111      11.63846250      23.03850185 
H      26.02370225      11.10636156      21.36345324 
H      14.50310178      33.91334900      26.34758013 
H      15.06059255      33.07825764      27.83414550 
H      15.33339998      34.84030324      27.63174674 
H      14.75907150      21.32244603      33.51239965 
H      14.57486347      19.77141276      32.63641717 
H      16.20267277      20.36712527      33.06714771 
H      21.82950040      15.91139732      13.61083168 
H      22.71340915      14.97184897      14.84486048 
H      21.00754248      14.56916207      14.45835736 
H      22.45903526      30.05790928      13.19147234 
H      23.42813371      30.00588284      11.68366070 
H      22.61947590      28.51888223      12.29052670 
H      18.96120711      20.58196424      12.99949909 
H      19.86631128      21.70765868      11.94348043 
H      20.75423241      20.51748537      12.94479371 
H      22.86630350      33.58316515      15.21435903 
H      21.14495698      34.05727363      15.03404193 
H      21.77717022      33.57332777      16.63663253 
H      23.57021808      36.14772731      28.04168006 
H      24.70598511      35.18544715      27.03673905 
H      23.03341794      35.47195009      26.46492357 
H      12.27142673      16.41402884      30.96506465 
H      12.34749435      18.20273104      30.98802088 
H      11.29457959      17.36607395      29.80367819 
H      26.10936780      34.87518123      21.19750444 
H      25.72818749      35.32987684      22.89561647 
H      26.71258602      33.87224813      22.56173405 
H      29.25073727      21.30614834      11.56051704 
H      28.45204065      19.77648791      11.07374979 
H      27.91282409      21.33506247      10.37047672 
H      15.31821247      21.38711882      15.54539154 
H      16.26895066      22.55635388      14.56467509 
H      17.10977878      21.25945326      15.47229914 
H      28.18878994      15.81394566      15.22039218 
H      27.72236049      15.42654896      13.53325663 
H      28.15135119      17.11058008      13.98475371 
H      16.71064600      11.89820187      29.75891969 
H      18.23523059      12.14978829      28.84688999 
H      18.27283738      11.98434410      30.62898467 
H      30.78791023      13.57750033      30.75511521 
H      30.05955807      14.82372510      31.81988866 
H      29.61007854      13.09925152      32.01037034 
H      27.05990242      35.38928065      28.80479465 
H      26.22999303      36.03034433      30.25313985 
H      28.01431869      35.91461015      30.22479069 
H      33.02673151      28.83888955      17.38609472 
H      31.71119945      29.76687688      18.15532800 
H      33.42336450      30.15924191      18.52598408 
H      26.89070463      16.51005459      34.17095255 
H      25.48856010      16.32563985      35.27460138 
H      26.67693366      14.99011479      35.09226560 
H      12.87677640      29.70383835      21.21606915 
H      13.11950796      31.22127843      20.30035680 
H      12.07170842      29.93805407      19.62987498 
H      12.31996593      27.51763456      25.78778594 
H      11.10951638      26.37863379      26.44304288 
H      11.77999814      27.67588625      27.48272588 
H      36.11991726      19.95649289      26.35320688 
H      36.83820640      20.18397278      27.98606513 
H      36.03290254      18.64270769      27.56840038 
H      29.85910273      25.39659977      14.61460434 
H      31.58402746      24.92773033      14.70181406 
H      30.44850501      23.99844145      13.67470752 
H      19.52114335      23.91340117      35.72951660 
H      19.03022020      25.29647988      36.77171107 
H      17.79240862      24.28478460      35.96178328 
H      36.63387293      25.79934304      25.73788389 
H      37.33826307      24.41612900      26.64507386 
H      36.17678458      24.12011121      25.30871048 
H      18.87067268      20.13757329      36.71962718 
H      17.85496648      19.14646574      35.62501621 
H      19.60789601      18.84849637      35.71454250 
H      32.51827640      24.19072721      32.26200873 
H      33.51365921      25.68416855      32.38892458 
H      31.74346584      25.74403121      32.70272977 
H      25.12542731      19.13573584      11.63941505 
H      24.44451282      17.62469915      12.30819024 
H      23.53442300      18.54047421      11.05455996 
H      14.68539589      33.41135193      21.49920883 
H      15.66724864      34.43630035      20.41264002 
H      15.70164956      32.65149139      20.23940184 
H      14.97284975      26.16680862      32.83716603 
H      14.34010800      24.76200674      31.90679463 
H      16.03137045      24.76240302      32.48388977 
H      11.23897721      26.55098998      20.61128670 
H       9.81947911      26.82556741      21.67384605 
H      10.82810832      28.20946934      21.15755321 
H      22.27906088      11.81783389      17.53590086 
H      22.18635809      13.18557145      16.40085126 
H      23.14299937      11.73343492      15.96477253 
H      12.43473853      23.57677979      17.28991758 
H      12.18683995      25.32761046      17.00467433 
H      13.83187540      24.61221390      16.88840298 
H      22.63960947      11.93553928      27.99032661 
H      21.45787379      11.49671829      29.26731516 
H      20.91163829      12.34128704      27.77676115 
H      16.77524519      14.99629838      32.48235789 
H      17.75610364      15.57460859      33.85981282 
H      15.96200030      15.67492426      33.93304933 
H      13.43680063      16.34577865      21.28911134 
H      13.85998281      14.87222668      20.34687048 
H      13.84680170      14.82623881      22.13977757 
H      13.24660615      13.62073866      26.60815876 
H      13.03382975      15.21625674      27.41394662 
H      12.73961328      15.05824963      25.65572708 
H      27.88306533      32.55389525      16.09539326 
H      27.27989780      33.70094272      14.85070137 
H      27.41971078      34.20607827      16.56532343 
H      31.80457319      14.09964529      24.68227197 
H      32.21332594      13.52580146      26.32669151 
H      31.63944719      12.36325944      25.09690612 
H      18.31475918      12.84075644      18.19480530 
H      18.03893388      12.67358216      19.95484084 
H      17.83463170      14.26523002      19.17391178 
H      28.96617484      34.87787588      24.97401156 
H      28.97491681      34.78430079      26.76606558 
H      29.62196308      33.42941603      25.80500245 
H      12.13284562      23.35527301      28.49642781 
H      11.21436581      21.84430744      28.83269885 
H      12.79042400      22.14719885      29.65293574 
