699
Properties=species:S:1:pos:R:3 i=152 optimized=T E=-11709.4825066886 pbc="F F F" jobid=279_84-Ag-90_0-000009-PBE
Ag      33.18399079      25.45046376      25.94816313 
Ag      31.96272041      29.23757779      21.53134213 
Ag      34.43316214      28.14917471      25.35637009 
Ag      29.84508089      15.18509411      19.71397074 
Ag      33.76648434      19.63607675      23.71828950 
Ag      27.06942332      23.47672851      13.37308541 
Ag      18.26953691      33.16949372      28.15172104 
Ag      28.36929399      30.70294892      18.23591639 
Ag      24.95903663      21.23994476      23.29895915 
Ag      26.30848179      23.25933599      24.95142352 
Ag      28.19377282      25.08270224      23.66138347 
Ag      23.80887852      21.67171626      29.01963525 
Ag      23.34972826      27.89525668      26.95670198 
Au      26.90326493      23.07732465      22.03455251 
Ag      22.40670895      19.60137185      27.43812954 
Ag      27.24537411      21.17648955      26.75211709 
Ag      22.06283339      21.49955164      22.74844159 
Ag      21.08098606      23.54399294      20.90998081 
Ag      27.64019814      25.28847413      26.56441397 
Ag      20.00859716      24.03514472      26.69015491 
Ag      25.52776482      21.02379270      20.41847299 
Ag      24.27694199      25.80544069      28.77296461 
Ag      23.87763623      27.68072736      24.06534188 
Ag      26.18913392      27.63132215      27.56322335 
Ag      20.94624178      21.91353289      28.46363998 
Ag      22.88413371      23.73953704      27.19737533 
Ag      21.49954557      21.69908657      25.62068691 
Ag      19.55542529      19.89556689      26.91199836 
Ag      25.87232646      19.14157740      25.12196927 
Ag      25.23080257      23.68921541      30.67072791 
Ag      23.02295304      25.35738382      19.62312452 
Au      20.99927897      27.91188588      23.52985900 
Ag      26.67881811      27.37174026      24.69362664 
Ag      22.63930033      21.30114074      19.87880860 
Ag      21.94525298      25.85123282      25.36937832 
Au      27.15027353      25.49513035      29.44520270 
Ag      20.15080620      19.69844189      24.04096648 
Ag      25.89098267      25.10264664      20.20738598 
Ag      23.55343261      19.22413674      21.69547358 
Ag      22.31266413      23.99747896      30.01119114 
Ag      21.08463932      17.54270690      25.84049698 
Ag      21.53898317      27.62382628      20.65125825 
Ag      24.41844738      27.39354945      21.24281018 
Ag      24.55008330      23.07224699      18.59376424 
Ag      28.61898241      23.18212255      28.43992900 
Ag      18.63631592      21.97465182      25.09993226 
Ag      26.70870054      21.31744931      29.62730357 
Au      22.40866254      30.05068972      25.08884505 
Ag      27.26055079      27.13752005      21.81743732 
Ag      21.82728633      19.76743113      30.35660777 
Ag      18.49903941      26.40695245      27.66230100 
Ag      23.17525086      21.87818959      31.80739599 
Ag      21.62933784      23.34859950      18.02087295 
Au      17.11306111      24.32052415      26.12749017 
Ag      27.47842788      22.80634844      19.13349229 
Ag      23.92350095      17.22919766      26.37924916 
Ag      23.32086173      17.53818979      29.26669934 
Ag      25.23278080      29.74558654      25.69904654 
Ag      21.66448702      17.30783774      22.96185607 
Ag      28.77576406      18.85285172      25.71914804 
Ag      22.84928978      29.77444411      22.22556593 
Ag      25.34718600      25.33772966      23.07114099 
Ag      20.10844028      25.61209679      19.03118224 
Au      29.53826846      27.13885573      25.30434316 
Ag      19.41978270      24.28151860      29.55903224 
Ag      18.03726720      22.20820450      27.94927846 
Ag      19.98838233      28.34775369      29.23537795 
Ag      23.73104863      25.96709044      31.60447622 
Ag      20.91956844      26.35934814      31.08995398 
Ag      26.41868409      18.97585517      22.24368686 
Ag      24.69153447      19.56796637      30.85184033 
Ag      20.42572848      17.78133812      28.73796934 
Ag      28.85713755      24.86257259      20.76448773 
Ag      19.57213679      30.24150120      24.57977308 
Ag      25.75283530      29.54319990      22.81170444 
Ag      24.97860622      27.18720717      18.28867636 
Au      28.44520042      20.77051859      20.95798472 
Au      29.02629539      27.41945623      28.19072439 
Ag      30.08479254      20.96476178      27.35738612 
Ag      18.19930391      23.87946777      20.35654109 
Ag      17.79753900      19.68955713      20.64850179 
Ag      25.66095084      27.79886415      30.43308130 
Ag      28.07870572      23.41945331      31.30038012 
Ag      21.89999440      30.17978493      28.01511525 
Ag      21.75367708      24.24223184      32.82258258 
Ag      18.68592616      27.91872021      20.06919977 
Au      16.38172244      21.99085206      21.66805996 
Ag      30.51965918      25.08773311      27.10358251 
Ag      23.42839639      23.52720833      24.34726025 
Ag      20.04237635      29.99110222      21.62476802 
Ag      16.66516974      20.10312028      26.38584961 
Ag      26.76314075      17.06155717      26.96040232 
Ag      29.88695198      25.27469367      29.99039035 
Ag      17.61622477      28.48599491      25.86006214 
Ag      16.23947022      26.34715694      24.27604084 
Ag      28.52476986      29.18240333      23.39708420 
Ag      27.82716394      26.89076492      19.00743596 
Ag      24.15406249      19.01177390      18.77689650 
Au      27.38892514      16.81383760      24.06483602 
Ag      26.98641771      18.70092895      19.36450953 
Ag      25.96719483      21.51275505      32.48731649 
Ag      12.71226645      18.77139279      21.98228267 
Ag      23.16667392      21.06174603      16.99810077 
Ag      26.31976911      29.17398818      19.91742971 
Ag      19.95364245      19.59617613      32.49175089 
Ag      26.14420330      17.25179289      29.78943298 
Ag      29.26059688      18.71027931      22.84020838 
Ag      27.59639064      29.75161012      29.21986060 
Ag      15.26004567      22.47887734      27.37443580 
Ag      26.09687195      20.77565107      17.48773893 
Au      24.50083575      23.89360018      33.44201847 
Ag      23.59694541      25.15515699      16.71564916 
Ag      17.60818851      18.01412366      28.16363999 
Ag      19.10105028      30.46082712      27.43670943 
Ag      23.48630073      29.41552512      19.41188121 
Ag      22.47101508      25.59422602      22.48418655 
Ag      16.18504096      20.21936748      29.28737239 
Ag      27.50816114      19.23114881      31.44032036 
Ag      29.13459633      28.93291156      20.58078190 
Au      16.55385256      24.53972682      28.93449280 
Ag      31.96985567      22.82963352      26.12954521 
Ag      16.74100785      21.70541681      18.80566069 
Ag      24.85677971      31.51416036      20.81900904 
Ag      21.97282610      31.73274599      20.28350227 
Ag      20.75016856      25.35883192      16.24642307 
Ag      24.27406126      31.85950350      23.83771514 
Ag      20.62632188      29.65325287      18.79860034 
Ag      23.16028950      15.09694631      21.73707485 
Ag      30.34098148      22.56300305      19.69924367 
Au      25.09629848      22.87074252      15.70258856 
Ag      18.75258450      23.59318064      17.41941606 
Ag      28.90657807      20.48554416      18.14694808 
Au      17.59475649      22.48830047      30.89504280 
Ag      17.16039350      28.75280219      28.70494816 
Ag      27.84017215      16.68351630      21.20238829 
Ag      15.61436966      26.83376579      27.06094176 
Ag      19.00903833      15.75184471      27.07599634 
Ag      19.68373575      15.53525002      24.11540879 
Ag      18.07990799      26.73901675      30.66769093 
Ag      20.27802120      15.42918572      21.29477106 
Ag      27.18521598      31.53195721      24.34855981 
Ag      24.80180438      15.17724331      28.36095285 
Ag      23.99046387      23.30546654      21.46150795 
Ag      20.27105666      21.21547456      16.42601459 
Ag      27.92799257      22.66968942      16.13542663 
Ag      31.37998876      20.37683865      21.73240962 
Ag      26.77292319      31.78084022      27.37404946 
Ag      25.68984958      14.94682568      25.34617324 
Ag      28.71713494      16.24146525      28.86486060 
Ag      26.00911489      14.83244471      22.38553422 
Ag      32.57898291      22.59936390      23.29034143 
Ag      25.71065894      30.54259971      31.26480161 
Ag      22.91560576      30.90604468      30.65759983 
Ag      24.21350541      16.95238960      31.90957101 
Ag      31.31322559      17.94642101      24.78632203 
Ag      17.16759753      25.97653976      18.57872623 
Ag      31.56569329      23.07423342      28.96047746 
Ag      29.37507519      16.08815167      26.00326973 
Ag      15.62631815      29.19078053      23.93605043 
Ag      16.12040275      28.93317307      21.06476154 
Ag      17.09143043      31.28176190      25.52828641 
Ag      29.38859847      24.76513058      17.91948320 
Ag      30.71523265      18.09783807      27.65950444 
Ag      18.53586824      17.54640252      30.89751150 
Ag      22.88994221      19.37587561      33.07685131 
Ag      18.07542178      30.69536811      19.68805434 
Ag      17.53730945      30.99050834      22.61274801 
Ag      14.20366333      27.04910517      22.40607273 
Au      32.61936480      20.03281875      26.46751043 
Ag      24.80017203      25.57858728      25.93810253 
Au      32.88297774      26.68676335      23.06593867 
Ag      24.99545663      20.00096306      15.01478187 
Ag      20.06762433      31.02283785      30.10026066 
Au      31.77395765      27.72905451      27.04054808 
Ag      23.81703880      28.67831141      32.47101278 
Ag      29.92312407      15.93258440      23.06613089 
Ag      22.00145809      16.90445501      34.34781429 
Ag      13.94263894      19.66036206      27.49122224 
Ag      24.07304000      27.89280265      15.65795235 
Ag      15.46118588      17.56867665      30.40699821 
Ag      25.55943680      25.62812606      14.73793686 
Ag      28.79818017      30.42586935      32.03877237 
Ag      22.64319356      30.12167688      16.81783202 
Ag      21.51654273      21.76030956      34.41580382 
Ag      31.27205031      27.94631593      30.02479997 
Ag      19.85633268      15.05619224      29.80266259 
Ag      22.68167831      25.74630086      13.93434863 
Ag      16.29789193      15.13656876      28.01467702 
Ag      24.92513779      32.80341790      29.41239893 
Ag      26.57583557      14.80258883      31.34315307 
Ag      28.48925299      13.60567371      24.23921741 
Ag      16.34142329      17.32418215      19.42767530 
Ag      16.21936993      17.21292864      23.34699198 
Ag      20.85436210      15.47079640      17.92666705 
Ag      11.99484246      24.44908858      23.12327768 
Ag      14.74750913      29.95815218      26.83490643 
Ag      24.36711756      21.41339289      26.17048102 
Au      14.99797564      19.98233420      20.24331374 
Ag      25.31819154      31.00832029      18.00116078 
Au      28.15366768      20.23068901      14.51911362 
Ag      30.14992664      26.96355332      22.48194081 
Ag      31.03445938      24.85740381      24.22764383 
Ag      31.73113075      24.71855613      21.42442673 
Ag      20.54568985      23.79580748      23.80316611 
Ag      25.21452481      14.91242519      16.20903321 
Ag      30.77758572      29.67903886      25.06135051 
Ag      25.73674801      23.46728617      27.81244265 
Ag      27.07309465      27.49521545      16.31482719 
Ag      20.94979230      31.34260583      33.02019148 
Ag      17.71385211      24.02869783      23.26675632 
Au      23.00710132      19.37102987      24.53720762 
Ag      27.80973515      20.98260985      23.87766466 
Ag      19.61279278      25.86463052      21.94344537 
Ag      24.93617226      30.86748780      14.97593899 
Au      25.25622500      19.34136673      27.96677477 
Ag      19.07345395      26.10387965      24.82433652 
Ag      20.51379462      28.15406047      26.39763406 
Ag      21.41330261      26.04837320      28.21192760 
Ag      29.15259880      23.03422983      25.53463898 
Ag      19.22332499      21.74886306      22.19858083 
Ag      24.56456760      17.06422405      23.54215873 
Ag      22.83986149      28.15434676      29.84259749 
Ag      20.69810157      19.49088308      21.15096914 
Ag      20.38645349      22.19455381      31.30791718 
Ag      24.78750509      29.96206075      28.62027168 
Ag      18.10870561      28.23151503      22.96002573 
Ag      28.15763955      19.03771927      28.59407948 
Ag      19.00551497      20.13031377      29.76428506 
Ag      29.77991702      22.73199686      22.64590415 
Ag      19.68823403      21.54696423      19.25850787 
Au      18.24008625      17.85800077      25.27280243 
Ag      15.77874197      22.20022407      24.52456155 
Ag      16.72418757      26.13611834      21.40193469 
Au      26.50720743      24.88558329      17.36510844 
Ag      28.03932617      29.46138493      26.23485206 
Ag      17.23454152      19.91376023      23.50646529 
Ag      18.87416662      17.67625916      22.42210883 
Ag      30.70416931      20.72825930      24.49340196 
Ag      22.13813341      27.42842341      17.79471363 
Ag      21.23447947      19.32733048      18.31429122 
Ag      22.20968106      17.23503566      20.02559064 
Ag      21.95481386      15.55544103      27.63621875 
Ag      18.97086244      24.46083927      32.40054204 
Ag      26.46661940      25.67001176      32.40213838 
Ag      14.89265191      24.26292894      22.73997697 
Ag      29.58162135      20.93700047      30.18954910 
Ag      23.82049178      31.95537261      26.72210544 
Ag      22.57011351      15.21585526      24.79943849 
Ag      25.01548594      16.97760563      20.64437041 
Ag      28.46758289      27.68644647      31.06818911 
Ag      19.34868211      17.49868138      19.57046793 
Ag      27.70973439      31.20959882      21.53290404 
Ag      15.33612527      24.05106896      19.90575920 
Ag      21.34460039      17.14420564      31.43948832 
Ag      21.22727165      32.11879924      23.12186306 
Ag      14.18524974      24.55336344      25.46978802 
Ag      22.30237956      23.05831600      15.10197649 
Ag      30.65155455      26.74866079      19.58668102 
Ag      18.40093990      19.47448996      17.76225821 
Ag      22.94780609      18.31167993      16.25675246 
Ag      15.53297221      17.47683303      26.15598340 
Au      30.21182922      29.96663014      27.99404743 
Au      29.79576433      18.27555731      20.01341165 
Ag      13.74205087      21.60775642      22.51810735 
Ag      30.42735970      17.66748388      30.78395895 
Ag      26.71798017      15.90658715      18.66366892 
Ag      20.90159475      32.34311566      26.26859854 
Ag      19.29157944      27.78501987      17.11051414 
Ag      25.86752351      17.93282811      16.77864136 
Ag      14.53336255      19.55502239      24.44773792 
Ag      19.10177053      33.18538494      20.94592712 
Ag      23.96919222      22.17754419      12.90286305 
Ag      34.64733627      22.67168613      27.32334319 
Au      28.75516972      32.77940550      29.40564349 
Ag      19.31072401      31.06503000      16.60227719 
Ag      23.76982098      15.15003940      18.90564743 
Au      13.75595336      27.15577202      19.49212866 
Ag      20.96285486      26.84589795      34.11421408 
Au      19.64045837      28.68868696      32.01718596 
S      20.40458050      15.53319949      33.20366695 
S      28.40704218      32.67767835      19.65469316 
S      23.57338054      22.70556352      35.41100945 
S      23.62245163      18.39965545      35.29119901 
S      12.54918740      18.02421613      24.25524161 
S      32.33968705      17.27280546      29.35333074 
S      31.45557519      14.81052990      21.48584879 
S      29.46200605      19.11681631      16.13711325 
S      28.27850386      21.94974172      33.31802523 
S      23.12217736      27.81712663      34.68362383 
S      13.48526911      30.12312294      24.75802702 
S      16.39140755      18.15409095      17.13258977 
S      32.78302331      23.03135230      19.92270745 
S      26.83939498      30.68296005      33.45559622 
S      23.04939394      32.44865617      32.64803047 
S      17.17097978      31.62642291      17.57502126 
S      11.35988588      22.13730272      22.84462339 
S      25.15123649      13.14034578      26.94274296 
S      33.78284032      29.14425209      27.44488798 
S      28.66675698      26.45109553      33.25287398 
S      23.88465687      24.49981076      12.14252192 
S      27.62635053      25.86360620      13.38032297 
S      19.18188670      33.31314878      30.38020900 
S      28.91627579      17.60616272      32.66669385 
S      21.14625760      34.14747926      24.54757691 
S      30.68771672      32.34270352      28.11810591 
S      28.87183619      29.18962246      16.41007343 
S      33.48360175      17.22479074      23.82736857 
S      34.89523850      21.78442527      23.60757942 
S      19.49228909      13.65342437      25.73499074 
S      20.78997821      33.66074846      19.27204900 
S      12.72983785      19.35861585      19.63997649 
S      18.82122543      30.36071650      33.59679727 
S      31.67971221      31.00710143      23.18903459 
S      35.24232201      27.26723925      23.26546330 
S      31.11863962      29.92412742      31.52741387 
S      23.27885356      13.25426132      23.40477093 
S      32.08029810      19.09306425      19.66765669 
S      28.57056629      14.55583492      17.74659039 
S      15.36329342      30.39687691      29.14061007 
S      31.72615761      21.76438665      31.10886084 
S      20.61526469      27.08338083      14.44398061 
S      17.01753231      27.05128657      16.34947281 
S      27.45618552      12.82940301      22.19239389 
S      16.78380786      33.61622469      26.30822341 
S      15.25642862      21.72608948      31.09156434 
S      21.10730554      16.69762962      15.84789045 
S      24.76716930      28.98598105      13.50109229 
S      19.98035994      22.49423283      14.30320830 
S      21.22604265      31.27559532      15.15072200 
S      22.97052026      33.78293624      28.17857125 
S      13.63554246      17.58159471      28.81054314 
S      24.26136775      33.60117038      22.04220620 
S      27.13013574      21.16469095      12.59871589 
S      16.37402806      23.09630645      16.78544332 
S      25.93619490      16.59608569      14.65562906 
S      17.45584385      14.41405397      30.01047500 
S      28.47551980      14.08402577      30.05755981 
S      26.93860194      33.64285433      30.63518909 
S      32.73613301      28.09457408      19.51672697 
S      24.98065593      14.96229125      33.14652058 
S      14.19024428      29.46958173      19.57010468 
S      13.30283581      25.96656321      27.34442025 
S      34.70178779      20.29515862      27.73758262 
S      30.37917202      23.32026520      16.16722559 
S      18.74469696      25.87836787      34.41859287 
S      35.37175191      24.94039571      26.99879320 
S      19.22852532      20.85651796      34.50905371 
S      32.33995592      25.63251247      30.17490041 
S      23.45767252      19.79134147      13.08195902 
S      17.05547833      33.39491199      22.23994994 
S      15.65367106      26.16993144      30.53818341 
S      11.83684527      26.84958509      23.14234122 
S      24.38504876      13.13892529      17.60706999 
S      13.09139391      24.90670531      19.23900658 
S      22.09585551      13.94635207      29.52107142 
S      16.66350461      17.55188940      32.51808678 
S      15.97782495      15.82717260      21.31439808 
S      15.04811449      15.05826504      25.93091924 
S      25.25394914      32.83018641      16.32816111 
S      29.94480089      13.68353262      26.18243901 
S      20.23713182      13.71513618      19.49336557 
S      26.98528610      33.63358153      25.67472936 
S      12.89969512      21.85330953      26.95787278 
C      21.22575904      13.88816358      33.16769125 
C      30.18054044      33.09563471      19.91465700 
C      23.03014749      24.02602908      36.56809118 
C      22.88444074      19.23815917      36.74932863 
C      11.08324312      18.91083006      24.92144088 
C      32.45914519      15.44968800      29.14774218 
C      31.38544230      12.98362049      21.68810594 
C      31.18264882      19.60779140      15.72833203 
C      28.13466186      22.97596743      34.83507560 
C      22.82654206      29.27135582      35.76744572 
C      13.46127539      31.91771016      24.35692247 
C      16.95358546      16.76446363      16.06556710 
C      33.41390921      23.98296169      18.47996865 
C      26.74061057      32.40684541      34.07724230 
C      22.55352708      34.13969910      32.12220043 
C      17.23992355      33.46492828      17.55735734 
C      10.62188416      22.15885622      21.15732705 
C      26.67298117      12.23552747      27.42077372 
C      34.85436567      28.32595234      28.69030754 
C      28.36788789      27.48496262      34.74384861 
C      22.71003310      24.52475731      10.72206748 
C      27.09641582      26.52452145      11.74986428 
C      17.64950242      33.15450750      31.38956495 
C      29.77005016      18.53109754      34.00701300 
C      19.57901594      35.07792074      24.35459610 
C      32.14545055      32.57207024      29.20622247 
C      28.82719890      30.14675036      14.84226211 
C      34.50144904      16.68996365      25.26241437 
C      35.75808218      21.84840837      21.98636029 
C      17.97595517      12.68035138      25.36359266 
C      21.62537057      35.20471128      19.81614732 
C      12.77793168      17.81361523      18.65007747 
C      18.93839258      29.67469235      35.29551690 
C      33.36286803      31.57158419      23.66783339 
C      35.58378529      28.66705264      22.12780715 
C      31.73836554      29.27079365      33.13162710 
C      21.85565927      12.15031963      23.02891659 
C      33.27566012      17.75374829      20.03554183 
C      28.16109303      12.79732640      18.10668947 
C      14.06165351      29.58697753      30.15471706 
C      33.03837315      20.49173474      30.98274555 
C      19.27876879      26.47532394      13.33771749 
C      15.84685955      28.45865518      16.41534081 
C      26.45796815      11.35814963      22.65689243 
C      15.17549868      33.84201530      27.17215152 
C      15.11189753      20.86939170      32.70782071 
C      21.69737449      15.50598300      14.57937474 
C      23.25980355      29.31791494      12.50378637 
C      20.00056774      21.36420767      12.85118105 
C      21.59663528      33.07062668      15.32461964 
C      23.53667491      35.32613946      27.35543783 
C      12.11835836      17.91915450      29.80280060 
C      25.76379440      34.66034955      22.10037507 
C      28.47871660      21.09546690      11.34464549 
C      16.29881050      21.93298159      15.36245187 
C      27.69150491      16.17128077      14.31249536 
C      17.50676433      12.57940510      29.85257988 
C      29.76675845      13.89108472      31.35185115 
C      26.95845574      35.43832584      30.23045287 
C      32.62107827      29.28239525      18.11658195 
C      26.01335512      15.57351349      34.54213038 
C      12.86649591      30.19721138      20.61552867 
C      12.03593113      27.15664558      26.76145112 
C      36.15340374      19.76407876      26.74470511 
C      30.85454357      24.34997081      14.72084948 
C      18.84448139      24.75978832      35.87552720 
C      36.60284517      24.73990551      25.64648136 
C      19.10561292      19.63173671      35.87515833 
C      32.73627316      25.28936071      31.93724977 
C      24.35956743      18.88276245      11.76724071 
C      15.69023101      33.47767711      21.01181300 
C      15.22101864      25.34331213      32.11549292 
C      10.68217834      27.19441455      21.75422417 
C      22.87727615      12.45298206      16.80966693 
C      12.93516841      24.66213160      17.42534455 
C      21.82487755      12.30894687      28.73225067 
C      16.50808977      15.87183900      33.24199850 
C      14.23463773      15.25027013      21.24884907 
C      13.27495326      14.82308905      26.34211990 
C      26.96328614      33.43701939      16.02857856 
C      31.64780338      13.48497340      25.51658269 
C      18.47555022      13.30740984      19.14902687 
C      28.63465961      34.43813141      25.78179915 
C      12.01717052      22.43383773      28.46317356 
H      22.31039189      13.97948009      33.04601413 
H      20.99958429      13.37948499      34.11183475 
H      20.81561999      13.31655225      32.32683209 
H      30.63983299      33.32891815      18.94798296 
H      30.22017534      33.98131180      20.55990382 
H      30.72255360      32.27738432      20.40186872 
H      23.92327457      24.44988706      37.04185220 
H      22.48836901      24.82513178      36.04857780 
H      22.38793838      23.57363941      37.33226341 
H      22.77935141      18.51152227      37.56229612 
H      23.57212025      20.03795358      37.04788285 
H      21.91017914      19.68127026      36.51888723 
H      11.14863053      18.89858593      26.01620413 
H      11.04473043      19.94798620      24.57053276 
H      10.18381566      18.37463822      24.59822692 
H      33.26154479      15.25567743      28.42573176 
H      32.72428993      14.99756413      30.10982884 
H      31.52493146      15.01362614      28.77460281 
H      30.35707780      12.62635135      21.81203848 
H      31.83399289      12.52253311      20.80084570 
H      31.97643332      12.71422050      22.57127886 
H      31.26422236      20.69746628      15.63525217 
H      31.81177519      19.26433264      16.55994936 
H      31.48524880      19.11456487      14.79837800 
H      28.05197069      22.30504719      35.69777668 
H      29.03691942      23.59203245      34.92072497 
H      27.25369683      23.62754528      34.78641425 
H      22.18403838      30.01843845      35.28290472 
H      22.36680589      28.93617683      36.70418688 
H      23.79976590      29.72846708      35.98289006 
H      12.84305299      32.43842287      25.09672581 
H      14.46845515      32.35057415      24.34235661 
H      13.00459031      32.02822075      23.36603818 
H      16.98239409      17.12887160      15.03173547 
H      17.95400818      16.41672057      16.34649734 
H      16.23490393      15.94116776      16.14071744 
H      32.62889060      24.06745006      17.71820327 
H      33.74271483      24.97936096      18.79461978 
H      34.26277369      23.42344473      18.06899403 
H      27.06079367      33.12201541      33.31255866 
H      25.69695481      32.60878364      34.34582594 
H      27.38014163      32.48813289      34.96343776 
H      21.69159480      34.11726092      31.44633751 
H      22.30786951      34.71783906      33.02017061 
H      23.40666643      34.59916149      31.60840706 
H      16.38097470      33.84431115      18.12249558 
H      18.16816623      33.84221974      18.00100674 
H      17.16264032      33.80054347      16.51701402 
H      11.21568883      22.76791041      20.46716133 
H      10.57236314      21.12938305      20.78322732 
H       9.61024408      22.57313154      21.23507006 
H      27.51176140      12.90597725      27.62829709 
H      26.45533178      11.65266416      28.32328785 
H      26.94361630      11.55794973      26.60198729 
H      35.82152133      28.84230468      28.68408082 
H      34.38129291      28.43348095      29.67377462 
H      34.99876159      27.26410107      28.46250904 
H      28.11154709      26.81625520      35.57364607 
H      29.28730789      28.03011902      34.98836693 
H      27.55876167      28.20443827      34.58397106 
H      22.60133891      25.55964895      10.37717139 
H      23.12681578      23.91476651       9.91236297 
H      21.73101937      24.13111752      11.01288090 
H      26.20415931      25.99969345      11.39077475 
H      26.86430646      27.58903251      11.87017786 
H      27.92246518      26.39433264      11.04148197 
H      17.93513927      32.93520735      32.42503629 
H      17.11404277      34.10969278      31.34781767 
H      17.00286089      32.35320489      31.01502437 
H      30.67263590      17.98268200      34.29782125 
H      30.02660183      19.54737249      33.68837423 
H      29.08380410      18.58884787      34.86003836 
H      18.70201556      34.42490806      24.33910403 
H      19.48858778      35.77225420      25.19807560 
H      19.62377507      35.64325017      23.41601263 
H      32.01931191      32.04801321      30.15983453 
H      33.01017477      32.16139123      28.67059195 
H      32.27834741      33.64745832      29.37048568 
H      29.57292729      30.94846684      14.88616076 
H      29.07986231      29.45865154      14.02666566 
H      27.83194859      30.57074943      14.65533359 
H      34.31291778      15.62123341      25.42059326 
H      35.56135508      16.83746739      25.02679266 
H      34.23996772      17.24278601      26.17136610 
H      35.04328284      21.78019656      21.15857461 
H      36.27986283      22.81121628      21.92795759 
H      36.48609243      21.03199489      21.93132040 
H      17.73274595      12.06473722      26.23785972 
H      17.12384595      13.32756600      25.13340739 
H      18.18745515      12.02657308      24.50943560 
H      22.43374318      35.41031402      19.10437475 
H      20.90299262      36.02795390      19.80102940 
H      22.05333384      35.08963688      20.81798931 
H      13.21651927      18.04719021      17.67329040 
H      13.37722511      17.03564574      19.13352570 
H      11.74557755      17.46498252      18.52800818 
H      18.74817593      30.49263052      36.00038085 
H      18.17298901      28.89773391      35.40255441 
H      19.92143505      29.23530733      35.49377205 
H      33.96523081      30.75205306      24.08127116 
H      33.86368634      31.99456075      22.78946264 
H      33.25236480      32.35068665      24.43132820 
H      35.52809518      28.29245319      21.09943236 
H      34.86133779      29.48053803      22.24876165 
H      36.59464469      29.03296859      22.34309170 
H      31.18729073      28.36939688      33.42307511 
H      32.80146216      29.02832425      33.01837278 
H      31.62288551      30.04264670      33.90099064 
H      22.12110251      11.14859475      23.38758291 
H      20.96240862      12.50337450      23.55923097 
H      21.66733206      12.12200006      21.95034886 
H      33.25857821      17.03164150      19.21114605 
H      34.26974170      18.21269719      20.10443677 
H      33.04897023      17.23842144      20.97356444 
H      27.32583314      12.49377003      17.46437594 
H      29.04480251      12.19052394      17.87882529 
H      27.87968748      12.65915170      19.15664538 
H      13.11625734      30.12170907      30.01149703 
H      13.94519920      28.53147887      29.88540840 
H      14.36734621      29.65563360      31.20532920 
H      32.90580405      19.77012680      31.79804691 
H      33.01246625      19.96186302      30.02657333 
H      34.01145989      20.98575091      31.08610652 
H      19.34577674      25.38927097      13.20764115 
H      18.31624149      26.72723927      13.80143328 
H      19.37450343      26.98096567      12.37016737 
H      15.96527672      29.05279554      17.32593333 
H      16.02626210      29.10377508      15.54763056 
H      14.82520933      28.06229448      16.37727277 
H      27.12961189      10.56704298      23.00758871 
H      25.72360439      11.60714792      23.43050550 
H      25.92854549      11.02029318      21.75811699 
H      14.39245572      33.93638558      26.41095603 
H      14.94603832      32.99880141      27.83316709 
H      15.22356146      34.76873516      27.75496323 
H      14.89211497      21.62448498      33.47175493 
H      14.28763774      20.14860041      32.65209413 
H      16.03366741      20.33982399      32.96781176 
H      21.79726836      16.05067282      13.63297501 
H      22.67218082      15.07781118      14.84825125 
H      20.95784585      14.70588944      14.46189487 
H      22.44775238      29.71907319      13.12023653 
H      23.52037561      30.03580613      11.71789870 
H      22.93990409      28.37241535      12.04910883 
H      19.03054398      20.85648295      12.79639699 
H      20.14560647      21.96499965      11.94553983 
H      20.80516589      20.62534875      12.92830558 
H      22.61071737      33.25578222      14.95046868 
H      20.87060589      33.62760602      14.72162527 
H      21.53219553      33.39236304      16.37034845 
H      23.46204611      36.15092302      28.07331891 
H      24.56845719      35.22620556      26.99977754 
H      22.87463461      35.51125806      26.49950496 
H      11.96187628      17.08444931      30.49583482 
H      12.21308292      18.85279919      30.36580778 
H      11.26451714      17.98845823      29.11872642 
H      26.35930479      34.52669831      21.19081064 
H      25.42135320      35.69955835      22.17266505 
H      26.36436193      34.41257646      22.98426872 
H      29.39445365      21.56399983      11.71638171 
H      28.67136836      20.04672127      11.09191323 
H      28.12555497      21.63007818      10.45495061 
H      15.85830601      20.97823804      15.66965403 
H      15.67264430      22.40305238      14.59459327 
H      17.30725184      21.77152041      14.96223894 
H      28.18739182      15.76543959      15.20151528 
H      27.70773999      15.42876958      13.50663863 
H      28.20657589      17.08475002      13.99145135 
H      16.47992058      12.19682045      29.83343216 
H      18.03154503      12.27582163      28.94101037 
H      18.02853459      12.17366592      30.72730745 
H      30.71365363      13.65243398      30.85430683 
H      29.88084296      14.80425660      31.94707297 
H      29.48127988      13.05745652      32.00336890 
H      26.87596003      35.60306214      29.15162526 
H      26.10369518      35.90016095      30.73932322 
H      27.88904568      35.87758515      30.60694150 
H      33.00449781      28.77805214      17.22147209 
H      31.58659078      29.59290859      17.93207071 
H      33.24344822      30.15693497      18.33510892 
H      26.79102966      16.26003406      34.18890804 
H      25.36369271      16.09113139      35.25751333 
H      26.47994859      14.70366699      35.01828541 
H      12.84658325      29.75499015      21.61855205 
H      13.08009980      31.27035453      20.69191837 
H      11.90082138      30.05410922      20.11863142 
H      12.31202398      27.63641306      25.81832962 
H      11.09336933      26.61547260      26.61899474 
H      11.90571004      27.92258209      27.53558752 
H      36.10364308      20.14862356      25.71956509 
H      37.05378505      20.14503206      27.24081495 
H      36.18169669      18.66881798      26.73353920 
H      30.07984971      25.08091656      14.46805698 
H      31.79075841      24.86860066      14.95787106 
H      31.01592227      23.68607066      13.86325609 
H      19.59257585      23.97175824      35.73220896 
H      19.09077011      25.35350754      36.76268279 
H      17.86177195      24.29228061      36.00866919 
H      36.81780114      25.72685547      25.22054769 
H      37.51664402      24.31496537      26.07696830 
H      36.22313398      24.07740016      24.86041859 
H      19.18379580      20.14816525      36.83861209 
H      18.12206199      19.15277213      35.79573283 
H      19.88048971      18.85932967      35.80316007 
H      32.74158791      24.20117266      32.08141872 
H      33.72955428      25.70124545      32.14992501 
H      31.99112419      25.74174209      32.59998808 
H      25.32332427      19.35967623      11.55949536 
H      24.52935318      17.85665188      12.11408337 
H      23.73929866      18.87772969      10.86359998 
H      14.74498663      33.40331725      21.56274255 
H      15.73258949      34.44592070      20.50029850 
H      15.74810076      32.66647217      20.27675197 
H      14.99955540      26.12656902      32.84992348 
H      14.33808303      24.71682885      31.94630545 
H      16.04575613      24.71784990      32.47856192 
H      11.03752258      26.75687609      20.81471083 
H       9.69692448      26.78742909      22.00794869 
H      10.60480945      28.28251995      21.64378962 
H      22.30167481      11.92413076      17.57776679 
H      22.24812886      13.23701407      16.37634816 
H      23.18856040      11.75306699      16.02596780 
H      12.66804120      23.61022058      17.26778347 
H      12.13793215      25.30865994      17.04349420 
H      13.88131617      24.87056126      16.91446607 
H      22.76168502      12.01419452      28.24179459 
H      21.56661789      11.58445256      29.51304066 
H      21.02567472      12.36126725      27.98368065 
H      16.55215219      15.10256827      32.46332882 
H      17.34023627      15.72567980      33.94027242 
H      15.55331243      15.81675001      33.77689977 
H      13.52705482      16.08693604      21.32258537 
H      14.07016880      14.70343329      20.31343282 
H      14.07453025      14.57526755      22.09807742 
H      13.09123564      13.75163424      26.48012591 
H      13.01270392      15.37379621      27.25223449 
H      12.67961393      15.20420411      25.50416803 
H      27.68392894      32.61670399      15.95139034 
H      26.96587094      34.02016644      15.10076761 
H      27.24532137      34.07529195      16.87369068 
H      31.85575222      14.18938037      24.70269793 
H      32.34885433      13.66469430      26.34040150 
H      31.76887099      12.45656554      25.15807463 
H      18.38200134      12.96106036      18.11411572 
H      18.18465298      12.49921749      19.83074212 
H      17.82007244      14.16878192      19.31967694 
H      28.72367130      35.14233690      24.94618494 
H      28.70579641      34.98308323      26.73043834 
H      29.44511236      33.70450355      25.73255863 
H      11.95477593      23.52857544      28.41222744 
H      11.01088961      21.99947639      28.46367272 
H      12.55300599      22.14257772      29.37315613 
