699
Properties=species:S:1:pos:R:3 i=163 optimized=T E=-11603.8091568853 pbc="F F F" jobid=279_84-Ag-79_9-000008-PBE
Ag      33.12090864      25.52404683      25.87978019 
Ag      31.89623604      29.30785245      21.63471385 
Au      34.54785419      28.15270066      25.42208346 
Ag      29.73492720      14.95347820      19.72214603 
Ag      33.77196224      19.59411451      23.69418826 
Ag      26.95704188      23.38628421      13.26589220 
Ag      18.30738779      33.17294426      28.15224335 
Au      28.51103413      30.68352821      18.09301856 
Ag      24.93098571      21.23579492      23.23665224 
Au      26.31213272      23.24793921      24.87573112 
Ag      28.16995149      25.09925480      23.59077723 
Au      23.81957182      21.64754709      28.95243735 
Ag      23.33639810      27.87278781      26.96473176 
Ag      26.87913597      23.07123260      21.97863694 
Ag      22.39161921      19.59797669      27.36908753 
Ag      27.22539400      21.15644339      26.69200896 
Ag      22.03229637      21.50784029      22.71064132 
Ag      21.02582856      23.56970863      20.87332279 
Ag      27.66433021      25.29696852      26.52023061 
Ag      20.00431740      24.06361936      26.66756690 
Ag      25.44280654      21.03204228      20.37025489 
Ag      24.28992726      25.75063332      28.78011939 
Ag      23.85864656      27.68308298      24.04313824 
Ag      26.18423483      27.58160007      27.56027524 
Ag      20.92206928      21.91517434      28.40233836 
Ag      22.87514445      23.74620692      27.15936480 
Ag      21.49509244      21.70259090      25.58234373 
Ag      19.53981801      19.86734095      26.88245659 
Ag      25.84210796      19.11421849      25.07979257 
Ag      25.23881714      23.62314400      30.68860556 
Ag      22.98963668      25.36838625      19.59102202 
Ag      21.00231630      27.93531344      23.52395179 
Ag      26.67472720      27.38134326      24.66671434 
Ag      22.57223398      21.31198670      19.83358753 
Ag      21.93606878      25.87366208      25.35052131 
Au      27.19064955      25.43678374      29.39949521 
Ag      20.14564626      19.68840047      24.02486521 
Ag      25.87553476      25.09086874      20.17180575 
Ag      23.48596034      19.22735415      21.66268447 
Au      22.32888323      23.96093180      29.97470239 
Ag      21.00092999      17.53272405      25.79532863 
Ag      21.54681412      27.65268830      20.63663945 
Ag      24.41008196      27.40189531      21.21962767 
Ag      24.51429721      23.10411418      18.54490643 
Ag      28.64391688      23.16484689      28.38796693 
Au      18.65460088      22.01658622      25.09225353 
Ag      26.71995365      21.29178974      29.56097747 
Ag      22.39733069      30.02610792      25.11672458 
Ag      27.22709792      27.16072013      21.76483246 
Ag      21.81211556      19.78534622      30.27917897 
Ag      18.50529182      26.41416520      27.68156588 
Au      23.17324694      21.78766514      31.86491227 
Ag      21.58279847      23.39628338      17.99653829 
Ag      17.11976100      24.36327039      26.14221225 
Au      27.40621432      22.79937154      19.09164125 
Ag      23.87337570      17.24337900      26.32358972 
Au      23.28754451      17.52870003      29.22563421 
Au      25.22092208      29.72170271      25.70958000 
Ag      21.58846296      17.31376285      22.91423836 
Ag      28.73379383      18.81968075      25.66890380 
Ag      22.86779380      29.77531979      22.24343009 
Ag      25.32615646      25.34137212      23.03868879 
Ag      20.06448849      25.67056630      19.03507146 
Au      29.58635306      27.13766824      25.29479822 
Ag      19.39775996      24.28571297      29.52751005 
Ag      18.03776553      22.23557013      27.95070964 
Ag      20.02965237      28.34337046      29.29642192 
Ag      23.75479806      25.88814631      31.63679391 
Ag      20.93160008      26.31548093      31.13159546 
Ag      26.38024594      18.98272970      22.17500413 
Ag      24.68169912      19.54939209      30.78463920 
Ag      20.42557207      17.76737372      28.69015865 
Ag      28.82750373      24.85140297      20.68310589 
Ag      19.55577594      30.23032001      24.58015088 
Ag      25.75652983      29.54509666      22.81059637 
Ag      24.93353065      27.12801193      18.29440095 
Ag      28.37813127      20.75876835      20.90117659 
Ag      29.10941350      27.40270133      28.19671207 
Ag      30.04291528      20.91973401      27.22952368 
Ag      18.10902678      23.86115852      20.36180369 
Au      17.73998363      19.74394438      20.64087440 
Au      25.67066689      27.71242664      30.46496622 
Ag      28.08079207      23.38055255      31.23812643 
Ag      21.89695731      30.16666163      28.07172797 
Au      21.79806507      24.15766776      32.85023922 
Au      18.67376625      27.94704596      20.10473178 
Ag      16.17340620      21.94277916      21.67048776 
Ag      30.52078556      25.06493325      27.06055760 
Ag      23.40575431      23.52974636      24.30525674 
Au      20.05862921      30.03380762      21.61482885 
Ag      16.69272522      20.11431672      26.41752055 
Ag      26.72703886      17.01345732      26.90371386 
Ag      29.99139799      25.25116382      29.91376596 
Ag      17.61022234      28.48588103      25.87472880 
Au      16.23651880      26.37009751      24.28361589 
Ag      28.55952128      29.14985886      23.36084908 
Ag      27.80850728      26.89407560      18.97119349 
Ag      24.06808652      19.01714186      18.71511110 
Ag      27.36007946      16.80506293      24.00379530 
Au      26.89483659      18.71524986      19.26156179 
Ag      25.93961895      21.45069222      32.52249459 
Ag      12.93856279      18.68683120      22.05679794 
Ag      23.06308314      21.09386246      16.98150274 
Ag      26.31397885      29.21057358      19.83142894 
Ag      19.96602699      19.62121308      32.45622477 
Ag      26.11882772      17.23824379      29.71825661 
Au      29.21373311      18.70473865      22.78653186 
Au      27.59082373      29.61578616      29.25025112 
Au      15.27948665      22.52512948      27.40911013 
Ag      26.00118054      20.80236271      17.37874364 
Ag      24.55474141      23.84932415      33.52098334 
Ag      23.58620282      25.16125406      16.66314989 
Ag      17.59073358      18.02244814      28.20194671 
Ag      19.10585327      30.44487376      27.43794417 
Ag      23.48610678      29.42045754      19.38414052 
Ag      22.44185723      25.60898007      22.45596740 
Ag      16.14955966      20.27645589      29.30649068 
Ag      27.48590646      19.17672763      31.37676635 
Ag      29.12934957      28.96002448      20.51679846 
Au      16.52719934      24.51391588      28.97693881 
Ag      31.94884900      22.82224519      25.96985590 
Au      16.63270465      21.71337509      18.79274076 
Au      24.85491028      31.53656590      20.81875738 
Ag      21.98914806      31.76911390      20.28837721 
Ag      20.69257307      25.40172690      16.21214365 
Ag      24.33059865      31.86165631      23.93178294 
Ag      20.62619047      29.67924206      18.78142547 
Ag      23.10034398      15.09020126      21.65085863 
Ag      30.26804139      22.55035410      19.56817013 
Au      25.05954158      22.91830049      15.62730467 
Au      18.74813138      23.72665914      17.40611820 
Au      28.80667660      20.56748026      18.02212094 
Ag      17.54353593      22.42318755      30.90739162 
Ag      17.20860931      28.74623095      28.75214556 
Ag      27.83501245      16.71093830      21.11233887 
Ag      15.60553233      26.85599247      27.06887702 
Ag      18.90973373      15.74285352      27.09671044 
Ag      19.60293090      15.51419696      24.11296105 
Ag      18.10984003      26.68886472      30.64659559 
Ag      20.15896464      15.45341950      21.27896789 
Ag      27.27545857      31.47204612      24.36765601 
Ag      24.72126647      15.16046715      28.31293601 
Ag      23.94501414      23.30949003      21.41693031 
Ag      20.17376569      21.29498686      16.41838591 
Ag      27.85965675      22.66882470      16.01986448 
Ag      31.30763823      20.34900077      21.64542846 
Ag      26.87411731      31.69693279      27.43744492 
Ag      25.49379196      14.99536441      25.24243099 
Ag      28.67449141      16.21838670      28.84772637 
Ag      25.97294419      14.86980254      22.32718477 
Ag      32.55611179      22.60221602      23.16065749 
Ag      25.66092417      30.48758293      31.28570297 
Ag      22.86509440      30.84786923      30.73612631 
Ag      24.28526279      16.98527897      31.90345446 
Ag      31.27147727      17.94409475      24.72744830 
Ag      17.07622628      26.08366690      18.60995852 
Ag      31.55689280      22.91117269      28.74848433 
Ag      29.34497707      16.06454004      25.95401926 
Ag      15.59698425      29.21893709      23.94967795 
Ag      16.06198483      28.94789714      21.05110502 
Ag      17.08809739      31.30444963      25.50391324 
Au      29.46642269      24.84767844      17.85610106 
Ag      30.67850176      18.09191906      27.60208436 
Ag      18.62576063      17.52887764      30.89986594 
Ag      23.84394946      19.64681879      33.50483924 
Ag      18.06569651      30.71392674      19.66984606 
Au      17.49497481      30.99073076      22.61896548 
Ag      14.13822070      27.07635044      22.50485033 
Ag      32.61668542      20.02370469      26.40809874 
Au      24.79542526      25.56495696      25.91643514 
Au      32.82667067      26.73216403      23.04270619 
Au      24.76738719      20.03717083      14.97339057 
Ag      20.01211778      31.03879275      30.10924778 
Ag      31.74470774      27.78882001      27.07260445 
Ag      23.89865631      28.58600885      32.55037967 
Ag      29.91372383      15.95456207      22.97058818 
Ag      22.46338352      17.08457743      34.35256209 
Ag      13.95449188      19.76664455      27.40778135 
Ag      24.07963604      27.87771434      15.64601456 
Ag      15.44335620      17.62424510      30.39378989 
Ag      25.63283935      25.66716227      14.68753922 
Ag      28.46999579      30.33741696      32.22967783 
Ag      22.65961152      30.14323570      16.79991949 
Ag      22.09529426      21.83201312      34.75182635 
Au      31.33646078      28.34013189      31.02395230 
Ag      19.98575588      15.07466736      29.77523992 
Ag      22.64577149      25.79805496      13.91526550 
Au      16.40281855      14.97149735      28.48152257 
Ag      25.10678262      32.77261729      29.51346561 
Ag      26.63049965      14.67852971      31.07837299 
Ag      28.58961523      13.59555472      24.16148879 
Au      16.35312229      16.96421845      18.98169331 
Ag      15.93627722      17.94967680      22.16249511 
Ag      20.81326578      15.50250787      17.87098105 
Ag      11.89102543      24.48496115      23.05889932 
Ag      14.79710850      30.03381974      26.90672561 
Ag      24.35753364      21.40517030      26.11062210 
Au      15.01168892      19.79869236      20.03701392 
Au      25.26209062      31.18754003      18.06030764 
Au      28.54056485      20.24598089      14.48315120 
Au      30.11328811      26.94648833      22.41571593 
Ag      30.99985426      24.84425828      24.15683521 
Ag      31.70660425      24.76340048      21.33008475 
Ag      20.53501282      23.82535206      23.77136938 
Ag      25.19734008      14.89114456      16.14705932 
Ag      30.70399325      29.79751962      25.16182737 
Ag      25.76355788      23.44633029      27.78189810 
Au      26.94712271      27.59130434      16.37691220 
Ag      20.71385428      31.36013066      33.02417877 
Ag      17.68398397      24.03925248      23.24789589 
Ag      22.97465458      19.37136947      24.50161427 
Ag      27.77383052      20.97721321      23.81363293 
Ag      19.58477021      25.87538231      21.93469714 
Ag      24.94796859      30.78719725      14.94337552 
Ag      25.23825175      19.31274763      27.91217353 
Ag      19.07536246      26.13183293      24.81808583 
Ag      20.51221940      28.15659658      26.39743899 
Ag      21.40950380      26.05119139      28.23080302 
Ag      29.13549187      23.02829230      25.44872725 
Ag      19.17621236      21.78873919      22.17578004 
Au      24.52467542      17.09247132      23.45609718 
Au      22.85412544      28.10429108      29.87789286 
Ag      20.63374707      19.48762720      21.11839458 
Au      20.35094695      22.17642745      31.24182643 
Ag      24.78331333      29.93985159      28.65817920 
Ag      18.08733392      28.25011008      22.97174425 
Ag      28.12359621      19.00772791      28.53754466 
Ag      18.98446200      20.12103491      29.74135870 
Ag      29.75347920      22.74396983      22.54331412 
Au      19.64720027      21.55960197      19.24151657 
Ag      18.14503920      17.82291481      25.26782569 
Ag      15.80131920      22.22303022      24.54641156 
Ag      16.67794989      26.17432952      21.43000439 
Ag      26.52829196      24.88321598      17.29019018 
Ag      28.04431556      29.37653512      26.25283067 
Au      17.28615466      19.95371939      23.55469612 
Ag      18.78601315      17.67895480      22.43979761 
Ag      30.68619087      20.72632189      24.39755679 
Ag      22.11774629      27.44806871      17.75842361 
Ag      21.15601304      19.31302748      18.27087955 
Ag      22.13296497      17.24055574      19.98116659 
Ag      21.88961815      15.50584783      27.52045740 
Ag      19.00177559      24.42469799      32.37040190 
Ag      26.46919349      25.61953207      32.38946081 
Ag      14.84051679      24.29220832      22.76976850 
Ag      29.59657124      20.87635945      30.11931725 
Au      23.84868399      31.92840997      26.78462215 
Au      22.48002231      15.24378952      24.74273371 
Ag      24.96382952      16.96832627      20.57972352 
Au      28.46949492      27.62845649      31.09596856 
Ag      19.23934697      17.50244195      19.53011763 
Ag      27.71203431      31.19109402      21.53467007 
Au      15.31259547      24.11628541      19.94178948 
Ag      21.42427836      17.17440597      31.41765113 
Au      21.20363762      32.07721396      23.13824520 
Ag      14.17861910      24.57650036      25.50544332 
Au      22.27695444      23.08785611      15.06590416 
Au      30.63975552      26.79474278      19.45166121 
Ag      18.30193041      19.52966854      17.74841802 
Ag      22.88565553      18.29081206      16.21994067 
Ag      15.47417249      17.53717195      26.28001187 
Au      30.17800867      30.02931283      27.98128856 
Ag      29.73702962      18.36956576      19.85426444 
Au      13.60887764      21.70117240      22.84669976 
Ag      30.28219351      17.74447677      30.82742371 
Ag      26.68001991      15.92904722      18.58581275 
Ag      20.92368306      32.29785726      26.32948634 
Ag      19.22628886      27.82468696      17.11593000 
Ag      25.83984885      17.97361293      16.66826151 
Ag      14.63498300      19.50898980      24.42143868 
Ag      19.16066085      33.18138982      20.92488591 
Ag      24.01493622      22.26851566      12.80528544 
Ag      34.45445903      22.46771447      27.44681090 
Ag      28.90933434      32.43173296      29.47544831 
Ag      19.31932903      31.12530120      16.59275168 
Ag      23.70376281      15.16920085      18.82612759 
Ag      13.96644596      27.12994612      19.53509079 
Au      20.78359767      26.70070337      34.23699825 
Ag      19.65268163      28.63966784      32.10011004 
S      20.56958679      15.93350403      33.43065412 
S      28.51741533      32.53439109      19.57740655 
S      24.11003142      22.80611340      35.73223467 
S      24.27877785      18.21242430      35.45784976 
S      12.75228938      17.84563356      24.31951498 
S      32.22866697      17.46265082      29.42242527 
S      31.40425978      14.69855527      21.43974870 
S      29.78788654      19.23458842      16.20789681 
S      28.30830946      21.80804206      33.16911663 
S      22.90340179      27.68271433      34.64730759 
S      13.49689108      30.15807990      24.86342023 
S      16.48914368      18.04411901      16.88543259 
S      32.69523021      22.97839883      19.92237881 
S      26.45273164      30.33869823      33.63671106 
S      22.85001565      32.39940636      32.70164880 
S      17.17847379      31.65691469      17.56637582 
S      11.22732517      22.15135808      22.89721131 
S      25.23036510      13.16423054      26.87751609 
S      33.87130915      29.08961242      27.45921039 
S      28.74956860      26.25657034      33.17486753 
S      23.65448193      24.55332021      12.00621159 
S      27.45465753      25.77605887      13.01058103 
S      19.13248252      33.33276946      30.41262677 
S      28.76950692      17.51891974      32.70590951 
S      21.30686852      34.04775008      24.55265932 
S      30.89613680      32.36265095      28.02049338 
S      28.86395634      29.13243090      16.32576792 
S      33.49361384      17.19545942      23.93466237 
S      34.85738447      21.75070899      23.50813266 
S      19.29431853      13.64688581      25.74715741 
S      20.82354000      33.68086646      19.21906968 
S      12.67451582      19.30003420      19.72369757 
S      18.60122217      30.34570474      33.55522281 
S      31.64751090      31.08119322      23.28407261 
S      35.19272910      27.21932617      23.35243556 
S      30.82563961      30.57242685      31.63842881 
S      23.08644247      13.27202789      23.36941321 
S      32.12039921      19.04200789      19.67708712 
S      28.43513067      14.39469298      17.77174309 
S      15.49590548      30.48167105      29.18068012 
S      31.69750160      21.90582873      31.00769039 
S      20.63314971      27.22929761      14.51858843 
S      16.94597969      27.07427125      16.33808771 
S      27.36119314      12.83166265      22.22672018 
S      16.88457857      33.65230566      26.27142503 
S      15.14880791      21.76637884      31.09224124 
S      21.06206003      16.69340936      15.76681678 
S      24.69506247      28.93283169      13.44430654 
S      20.05611131      22.41534809      14.17122010 
S      21.23427653      31.30188128      15.14471743 
S      23.26858394      33.84716879      28.18822906 
S      13.45420908      17.93971750      29.02374437 
S      24.37339412      33.57326198      22.09939931 
S      27.44930464      21.08787697      12.57302744 
S      16.43828118      23.09346808      16.77125477 
S      26.01204562      16.55044846      14.62226513 
S      17.66952323      14.35653650      30.37684205 
S      28.67927449      14.01697801      29.98979733 
S      27.12134871      33.36075053      30.84530411 
S      32.65290432      28.18540367      19.59503458 
S      24.92936274      14.76882624      32.78505141 
S      14.18694284      29.53884876      19.54425857 
S      13.26182892      26.06038110      27.31247558 
S      34.72896781      20.08333042      27.71785618 
S      30.25252784      23.51577846      15.99159399 
S      18.57111768      25.82822495      34.38277193 
S      35.08642011      24.77244466      27.19966169 
S      19.90234678      20.77511713      34.65120874 
S      32.19308107      26.16833116      30.64098653 
S      23.63565372      19.83133689      12.83275227 
S      17.09325302      33.37669179      22.21555910 
S      15.65287632      26.22401384      30.50825550 
S      11.70330838      26.88305501      22.93620357 
S      24.27727838      13.14770635      17.52455505 
S      13.10694103      24.88686546      19.18877340 
S      22.25010046      13.99755467      29.47844553 
S      16.72719401      17.69348339      32.46052310 
S      16.04891400      15.74307971      20.98985581 
S      15.08781392      15.11124217      26.53339898 
S      25.26267172      32.79453028      16.24359034 
S      30.07701156      13.69856849      26.07164371 
S      20.24117250      13.75642536      19.46764318 
S      27.09457133      33.53667842      25.73635206 
S      12.93687550      22.01343406      26.85719313 
C      21.12494620      14.18391406      33.32489733 
C      30.29277706      32.91904555      19.85510664 
C      23.52755511      24.15513223      36.83924726 
C      23.59462160      19.06347650      36.93794366 
C      11.23955871      18.67815477      24.95433348 
C      32.50814632      15.65088731      29.28085286 
C      31.35088700      12.88297321      21.72938333 
C      31.48481624      19.88786878      15.97169971 
C      28.24400251      22.71731249      34.76531890 
C      22.57521142      29.13805103      35.71784772 
C      13.45522140      31.93482084      24.39176844 
C      17.15552889      16.80385166      15.70751411 
C      33.39791494      23.87169286      18.47606314 
C      26.27494921      32.02920086      34.33515237 
C      22.45983148      34.09887390      32.12222507 
C      17.23524389      33.49626923      17.56653874 
C      10.62278453      22.06272569      21.16286497 
C      26.85471279      12.45647237      27.33780557 
C      34.87952770      28.25844889      28.74716419 
C      28.61923132      27.33473369      34.65481092 
C      22.24142903      24.39263544      10.83747953 
C      26.78056776      26.37574640      11.41246779 
C      17.56654168      33.19851783      31.37124150 
C      29.56573148      18.37945716      34.12038955 
C      19.79143167      35.03601789      24.26129944 
C      32.43348396      32.48860780      29.00799905 
C      28.71019758      30.10610760      14.77938612 
C      34.48047483      16.72269093      25.41166625 
C      35.71084298      21.74850354      21.88032627 
C      17.72531254      12.74326291      25.43424738 
C      21.69127601      35.20553306      19.76888490 
C      12.58777912      17.77755404      18.70113839 
C      18.69401323      29.74614471      35.29050195 
C      33.34255529      31.57486001      23.79771207 
C      35.60729196      28.62034714      22.24150849 
C      31.70530369      30.78824415      33.24094325 
C      21.60447424      12.22248196      23.10341062 
C      33.20001630      17.65482454      20.19811564 
C      27.90783705      12.68038934      18.18663430 
C      14.20159598      29.73778228      30.25355145 
C      33.10140702      20.72598625      31.06499227 
C      19.27908524      26.72338046      13.37990083 
C      15.80027420      28.50526554      16.33029870 
C      26.34252941      11.42829441      22.83896925 
C      15.26790566      33.94315946      27.09991879 
C      14.90208771      20.93077259      32.71079179 
C      21.65972841      15.50934228      14.49452392 
C      23.18322839      29.33868950      12.48298982 
C      20.25773160      21.14441273      12.86203285 
C      21.61848111      33.09594309      15.29027690 
C      23.95545582      35.29979378      27.30206378 
C      12.28878814      18.77686818      30.17712511 
C      25.94315027      34.52110387      22.10924676 
C      28.81493504      21.29098122      11.35611926 
C      16.48028617      21.92823031      15.35860033 
C      27.78893792      16.14856517      14.37619712 
C      17.77286290      12.52395367      30.22566405 
C      29.85082202      13.97190507      31.40635662 
C      27.24182748      35.19320775      30.67891977 
C      32.55918908      29.40010246      18.21917579 
C      25.95641465      15.07179336      34.28248638 
C      12.82646228      30.19125621      20.59424180 
C      12.05324343      27.23761187      26.59690798 
C      36.22122065      19.78932056      26.68153433 
C      30.58783832      24.69765021      14.62998285 
C      18.62585433      24.67071960      35.81103870 
C      36.46199402      24.64234728      25.98453839 
C      19.80111599      19.51586295      35.98441345 
C      32.41990458      25.50539540      32.33714380 
C      24.71788461      18.91754299      11.67164583 
C      15.71625566      33.48795799      21.00572449 
C      15.17799641      25.40310174      32.07789763 
C      10.68091075      27.12583413      21.42717358 
C      22.76720075      12.49822065      16.70342291 
C      13.04361778      24.65521170      17.36780237 
C      22.00969791      12.31256725      28.78294073 
C      16.56246353      16.11018067      33.37357065 
C      14.36433373      15.01113199      20.90802380 
C      13.33925977      14.85775220      27.02826957 
C      26.98214520      33.38481551      15.99150849 
C      31.79422808      13.61220348      25.42323583 
C      18.52232955      13.23752228      19.06781627 
C      28.75572785      34.32043216      25.79577578 
C      12.03580033      22.60295820      28.34511960 
H      22.16255417      14.10851252      32.98133522 
H      21.02840336      13.73505457      34.32004479 
H      20.46716956      13.66168489      32.61940561 
H      30.76071179      33.17889640      18.89965851 
H      30.33000724      33.78332476      20.52939920 
H      30.82091654      32.08105542      20.32432332 
H      24.41104816      24.66282526      37.24406178 
H      22.91330477      24.88335254      36.29875560 
H      22.95140143      23.71707372      37.66177294 
H      23.47902073      18.32583493      37.73994103 
H      24.31045143      19.83689704      37.23860891 
H      22.63190311      19.54053467      36.72941042 
H      11.25272746      18.60739935      26.04913280 
H      11.19970814      19.73139694      24.65545189 
H      10.36446450      18.14772695      24.56214042 
H      33.31667245      15.50030418      28.55548685 
H      32.82267443      15.26323429      30.25621222 
H      31.61038888      15.12188757      28.94057923 
H      30.32886587      12.52561462      21.89893901 
H      31.77716607      12.38281215      20.85240274 
H      31.96830082      12.65992564      22.60697074 
H      31.47157417      20.97663141      15.84943786 
H      32.05731371      19.61377787      16.86767227 
H      31.91360972      19.40693720      15.08525107 
H      27.80429072      22.06730055      35.52961348 
H      29.27178467      22.98055145      35.04098761 
H      27.64535746      23.63084408      34.66736508 
H      21.93189039      29.87237900      35.21638606 
H      22.10998232      28.80417801      36.65178864 
H      23.54645371      29.59959445      35.93470911 
H      12.86556708      32.48593042      25.13279781 
H      14.46089663      32.36514688      24.32015146 
H      12.96082272      32.00294892      23.41524144 
H      17.19621233      17.28726350      14.72375903 
H      18.16388640      16.47970232      15.98691417 
H      16.47370846      15.94782867      15.66596302 
H      32.65183686      24.54219699      18.03464482 
H      34.26988156      24.44747043      18.80519750 
H      33.70255912      23.12317819      17.73546537 
H      26.65600657      32.77747140      33.63153744 
H      25.21133520      32.21881837      34.51977597 
H      26.83681090      32.07312048      35.27516136 
H      21.58286426      34.10972587      31.46560254 
H      22.26855579      34.72161539      33.00355775 
H      23.33077945      34.48375700      31.57804108 
H      16.36443264      33.86390146      18.12110245 
H      18.15385162      33.87661872      18.02740546 
H      17.17114980      33.84050618      16.52816692 
H      11.27302917      22.62401566      20.48320534 
H      10.58979162      21.01192256      20.85290862 
H       9.61287154      22.48919596      21.14507664 
H      27.61984962      13.22754654      27.46546863 
H      26.74486722      11.91195035      28.28256803 
H      27.17134763      11.76316431      26.54890521 
H      35.87231710      28.72170416      28.76122242 
H      34.37241251      28.42040319      29.70638931 
H      34.96677863      27.18297902      28.55566787 
H      28.53402762      26.68449967      35.53396387 
H      29.53301265      27.93577111      34.73364428 
H      27.75180602      28.00044360      34.59930651 
H      22.01209345      25.38489438      10.43113394 
H      22.53305851      23.72531667      10.01834072 
H      21.35489822      23.99267729      11.34149895 
H      25.88743058      25.81311982      11.12140137 
H      26.51847817      27.43388227      11.53044041 
H      27.56228023      26.26401486      10.65218007 
H      17.81355944      32.94621104      32.40920877 
H      17.06150006      34.17028086      31.33281288 
H      16.91105326      32.42430924      30.95678487 
H      30.51744031      17.89105935      34.35541108 
H      29.72440053      19.43993358      33.89403533 
H      28.88755028      18.29465778      34.97811912 
H      18.88184234      34.43045431      24.31304149 
H      19.75063028      35.80681813      25.04070685 
H      19.86185482      35.51215562      23.27590487 
H      32.28988260      32.06521360      30.00791010 
H      33.22674521      31.94312680      28.48282841 
H      32.69310812      33.55161497      29.08150863 
H      29.49476516      30.87101990      14.75929270 
H      28.85107279      29.40625027      13.94660416 
H      27.72066558      30.57385271      14.69134364 
H      34.23673342      15.68119985      25.65266558 
H      35.54515466      16.79426728      25.16220573 
H      34.25610766      17.35935135      26.27535809 
H      34.99514869      21.61075605      21.06211120 
H      36.20342629      22.72139384      21.76527690 
H      36.46343655      20.95284902      21.86784973 
H      17.43604250      12.20681962      26.34563025 
H      16.91494461      13.42296729      25.15384878 
H      17.90325061      12.02268475      24.62740646 
H      22.48847991      35.41194010      19.04474460 
H      20.98162415      36.03996207      19.78053858 
H      22.13762517      35.07276661      20.76034606 
H      12.60669448      18.08247304      17.64817709 
H      13.44174648      17.11680227      18.89006404 
H      11.64837002      17.25807293      18.92081142 
H      18.70703476      30.60837308      35.96604808 
H      17.79892883      29.14119268      35.47642812 
H      19.57768725      29.12101109      35.45812276 
H      33.90830485      30.72124905      24.19417531 
H      33.86672541      32.00525837      22.93675194 
H      33.24782084      32.33469426      24.58268148 
H      35.63353849      28.23107310      21.21714417 
H      34.86228233      29.42011951      22.30356500 
H      36.59448601      29.00097304      22.52778789 
H      31.43069474      30.00851714      33.95733449 
H      32.78536482      30.75812179      33.05741349 
H      31.42751812      31.77006478      33.64199180 
H      21.05724837      12.13394196      24.04955054 
H      20.94911470      12.64609898      22.33318696 
H      21.96347424      11.23837900      22.77787968 
H      33.22500674      16.91009742      19.39435373 
H      34.20905650      18.05105100      20.36414762 
H      32.84844770      17.17491503      21.11584819 
H      27.07161094      12.40545541      17.53318917 
H      28.75830241      12.01362516      18.00516499 
H      27.59340444      12.60023691      19.23332568 
H      13.27216371      30.30513317      30.13392131 
H      14.03617522      28.68363431      30.00550344 
H      14.54802087      29.81222346      31.29116073 
H      32.97955385      20.09555134      31.95396392 
H      33.14814528      20.08840133      30.17749270 
H      34.03272070      21.29835139      31.14476399 
H      19.35964920      25.66108130      13.12566264 
H      18.32031773      26.90661445      13.88252882 
H      19.35203756      27.33401459      12.47249044 
H      15.88367750      29.10837420      17.23903435 
H      16.03376054      29.13692448      15.46548742 
H      14.77369697      28.12923197      16.24285963 
H      27.00668903      10.58923495      23.07396920 
H      25.76179307      11.71199590      23.72351759 
H      25.65330500      11.14018269      22.03673419 
H      14.50402009      34.05537768      26.32188165 
H      14.99809171      33.11351841      27.76315219 
H      15.33439201      34.87249407      27.67665663 
H      14.85308345      21.70165619      33.48856274 
H      13.95255014      20.38271964      32.68578506 
H      15.71076641      20.22849166      32.93596610 
H      21.77049807      16.05978004      13.55272763 
H      22.62993593      15.07556391      14.76983720 
H      20.91800960      14.71300251      14.36502552 
H      22.38669807      29.72898345      13.12594838 
H      23.44745915      30.08296983      11.72323312 
H      22.84143656      28.41812727      11.99421526 
H      19.25192319      20.81792389      12.57023822 
H      20.76483583      21.58521974      11.99558157 
H      20.83641894      20.28554097      13.21440751 
H      22.62021669      33.27171662      14.88052747 
H      20.87738592      33.65302204      14.70597868 
H      21.58934535      33.42661744      16.33486693 
H      23.94466182      36.15134195      27.99275729 
H      24.97711689      35.10308626      26.95617622 
H      23.30993709      35.50908411      26.44010587 
H      12.07728384      18.10333875      31.01547350 
H      12.71582988      19.71373879      30.55230175 
H      11.35807959      18.98831222      29.63780240 
H      26.28100394      34.68316510      21.08006529 
H      25.73228614      35.48375405      22.59137428 
H      26.71621488      33.99498940      22.68307032 
H      29.61919282      21.91477854      11.75687233 
H      29.20625815      20.30150121      11.09396576 
H      28.39173521      21.76737707      10.46395293 
H      15.54428172      21.35806604      15.35436193 
H      16.56911211      22.52258261      14.44144480 
H      17.33288380      21.24218033      15.43144499 
H      28.23636657      15.72552241      15.28225363 
H      27.86186449      15.42311996      13.55779081 
H      28.31188749      17.07301662      14.10150830 
H      16.76655938      12.10263672      30.32818296 
H      18.20567064      12.22912625      29.26460032 
H      18.40718597      12.15918842      31.04257821 
H      30.86051599      13.81909752      31.00857911 
H      29.81950692      14.89865616      31.99063511 
H      29.58341190      13.12243523      32.04501164 
H      27.21151943      35.49774223      29.62825482 
H      26.40153241      35.64733077      31.21692792 
H      28.18403205      35.52382775      31.13107443 
H      32.74365553      28.86735688      17.27901978 
H      31.57613797      29.88234354      18.17227333 
H      33.33925458      30.15449100      18.37440367 
H      26.73762632      15.81466004      34.08554527 
H      25.30500043      15.43628288      35.08549230 
H      26.41556324      14.12144061      34.57710504 
H      12.78299772      29.69565245      21.57124765 
H      13.00976614      31.26268820      20.73900912 
H      11.87616676      30.05808681      20.06501865 
H      12.39037400      27.65625125      25.64453484 
H      11.10816297      26.70653166      26.43436854 
H      11.89682620      28.05373985      27.31263028 
H      36.11912319      20.23224379      25.68435565 
H      37.08713107      20.22419995      27.19320299 
H      36.36436686      18.70661177      26.58948536 
H      29.79010891      25.43982696      14.52880714 
H      31.54099887      25.19887677      14.83389707 
H      30.66388099      24.12739830      13.69635642 
H      19.37238288      23.88251554      35.66364420 
H      18.84413273      25.23696015      36.72293012 
H      17.63227312      24.21350313      35.89273315 
H      36.69954876      25.65150389      25.62695373 
H      37.33419832      24.21630044      26.49313218 
H      36.18446640      24.00901206      25.13445574 
H      19.93185339      20.00568123      36.95602370 
H      18.80525772      19.05909565      35.93950349 
H      20.55739285      18.72983975      35.85965166 
H      32.59562556      24.42629759      32.23763759 
H      33.28898989      25.99104234      32.79395095 
H      31.52113059      25.67484786      32.94219746 
H      25.67939327      19.42602251      11.54827637 
H      24.88123198      17.91085987      12.07501743 
H      24.19176709      18.85956356      10.71119897 
H      14.77528379      33.39733118      21.56136912 
H      15.75932006      34.47150441      20.52354987 
H      15.77213258      32.69691079      20.24894798 
H      14.78644808      26.18035679      32.74515308 
H      14.40580881      24.65578999      31.86375979 
H      16.03896405      24.91396273      32.54939195 
H      11.09298598      26.59068108      20.56452614 
H       9.66650019      26.76782641      21.63623889 
H      10.64623413      28.19968075      21.21020276 
H      22.18645190      11.95535889      17.45787239 
H      22.14585311      13.29953357      16.29089970 
H      23.07202226      11.81572850      15.90207818 
H      12.85836366      23.59324706      17.16856710 
H      12.21740875      25.25720998      16.97272604 
H      13.98673059      24.95051741      16.89564962 
H      22.93427569      12.02644120      28.26505827 
H      21.81393709      11.62071522      29.61013939 
H      21.17580005      12.29855136      28.07224499 
H      16.54243963      15.25789579      32.68698641 
H      17.42626860      16.01508562      34.04211141 
H      15.63649530      16.14775179      33.95856637 
H      13.59189456      15.78064112      20.80357872 
H      14.31100535      14.30526951      20.07191670 
H      14.20876342      14.47490757      21.85219929 
H      13.20161199      13.80678432      27.30458511 
H      13.06085456      15.51439494      27.85923464 
H      12.72695650      15.09902905      26.15061671 
H      27.70855710      32.56923044      16.07752176 
H      27.04342371      33.84286327      14.99758853 
H      27.19881594      34.13167352      16.76383399 
H      31.97001980      14.33382063      24.61664589 
H      32.47100995      13.82771386      26.25870036 
H      31.98375884      12.59497705      25.06234599 
H      18.51938192      12.75951754      18.08195579 
H      18.20656529      12.51128404      19.82601298 
H      17.83184486      14.08818118      19.07574955 
H      28.82663814      35.02454084      24.95832149 
H      28.86067714      34.86535963      26.74115265 
H      29.55788549      33.57969907      25.72213677 
H      11.99785877      23.69951128      28.30724386 
H      11.02185889      22.18713446      28.30863726 
H      12.54277117      22.28319719      29.26240506 
