699
Properties=species:S:1:pos:R:3 i=83 optimized=T E=-10972.8095514001 pbc="F F F" jobid=279_84-Ag-20_1-000004-PBE
Au      33.21047094      25.47304070      26.09609466 
Au      32.07916593      29.45257057      21.51395288 
Au      34.60658429      28.15105424      25.47619390 
Ag      29.96008448      15.22520135      19.71743765 
Ag      33.85035993      19.67273745      23.70360717 
Au      27.44991187      23.39402419      12.84853239 
Au      18.20637350      33.31618025      28.05109447 
Au      28.61463698      30.68468250      18.03168877 
Au      24.97543738      21.25119190      23.24133379 
Au      26.36177176      23.23339817      24.92716131 
Ag      28.24561516      25.11918484      23.65203742 
Au      23.84950432      21.61095240      29.02859791 
Au      23.36235988      27.92968487      26.96284006 
Au      26.98635956      23.08526882      22.02873226 
Ag      22.41824733      19.52832620      27.36168216 
Ag      27.27500543      21.14080550      26.74486982 
Au      22.03417593      21.50321901      22.70175421 
Au      20.99296897      23.58982502      20.84906685 
Au      27.66907523      25.28386030      26.55573671 
Au      19.97927874      24.06196542      26.69683326 
Au      25.53631997      21.10063363      20.31582883 
Au      24.33941311      25.78348987      28.80432342 
Au      23.86454317      27.74997405      24.02148339 
Au      26.24164198      27.67730303      27.60053308 
Au      20.95717158      21.91608497      28.41337408 
Au      22.91434299      23.73266002      27.20866597 
Au      21.50147204      21.68578366      25.60209216 
Ag      19.53371448      19.80756392      26.91576652 
Au      25.87682676      19.11133246      25.11064751 
Au      25.34377706      23.62948355      30.75710720 
Au      22.98106446      25.37291286      19.54731795 
Au      20.97901256      27.96706776      23.52961169 
Au      26.67286949      27.41093660      24.70175334 
Au      22.54835692      21.36265199      19.78574255 
Au      21.94972019      25.89167390      25.35822019 
Au      27.24311553      25.53245903      29.46705594 
Au      20.15931653      19.66936773      24.05684489 
Au      25.92240367      25.06899053      20.15947229 
Au      23.54356877      19.21963318      21.58092968 
Ag      22.43971690      23.96634475      30.06314097 
Au      21.06708012      17.45263582      25.80277317 
Ag      21.55681858      27.69531065      20.57090822 
Au      24.40968393      27.44097763      21.16712973 
Au      24.50321352      23.10419675      18.44956024 
Au      28.65656933      23.19661420      28.47352032 
Au      18.60548961      21.98597942      25.13635305 
Au      26.76753508      21.27352434      29.63153818 
Au      22.41483861      30.12069770      25.08630421 
Au      27.25002028      27.14229868      21.78459186 
Au      21.86077333      19.74700185      30.21209432 
Au      18.51352720      26.42823249      27.74036149 
Au      23.24886071      21.76063766      31.96030125 
Au      21.57084340      23.42850360      17.87424182 
Ag      17.08095547      24.30539407      26.23851218 
Au      27.52037134      22.83133550      19.08986297 
Ag      23.90935174      17.15388989      26.27408744 
Au      23.26156915      17.41441321      29.20509755 
Au      25.23168931      29.83736982      25.73363339 
Au      21.66882422      17.23699060      22.87361964 
Ag      28.80833481      18.80513456      25.69944152 
Au      22.88490634      29.82604584      22.17701368 
Au      25.36500415      25.35683435      23.05066253 
Au      20.04711854      25.67595034      18.94439604 
Au      29.55393974      27.15637199      25.38856830 
Au      19.44486036      24.32799985      29.58907274 
Au      18.00509958      22.19890271      28.00634055 
Au      20.04653575      28.39261882      29.38639752 
Ag      23.86458613      25.92999127      31.69180336 
Au      21.09259158      26.36883463      31.20170148 
Au      26.41107664      19.03371604      22.10382138 
Au      24.67869233      19.49616427      30.88684832 
Au      20.36771635      17.57379806      28.71816294 
Ag      28.91819866      24.86674972      20.72773490 
Au      19.50576439      30.24105303      24.61211327 
Au      25.72571417      29.64486078      22.77002090 
Au      24.92711915      27.11379252      18.24419270 
Ag      28.50354537      20.79433349      20.88694002 
Au      29.13001578      27.49712257      28.32252110 
Ag      30.10711058      20.94277597      27.35969436 
Au      18.09059854      23.88898155      20.35177041 
Au      17.69289918      19.66601204      20.62593733 
Au      25.76673758      27.79176088      30.50568604 
Ag      28.23885119      23.36999303      31.35190667 
Au      21.94139824      30.24590575      28.06079606 
Au      21.94928210      24.17253023      32.92273285 
Au      18.66555640      27.97246484      20.09713772 
Au      16.20201041      21.91951316      21.68459482 
Au      30.56625513      25.07133370      27.17067582 
Au      23.43432349      23.52968529      24.30567781 
Au      20.02684205      30.03781454      21.65338323 
Ag      16.60578701      20.05733339      26.46033510 
Ag      26.77270959      17.00297823      26.87841406 
Au      30.01009208      25.32079235      30.08134645 
Ag      17.57693498      28.48181532      25.93773474 
Ag      16.16768496      26.38149641      24.37295843 
Au      28.52752197      29.21223171      23.35617908 
Ag      27.85668562      26.89908821      18.98113858 
Au      24.16960847      19.15864633      18.64494508 
Au      27.40556358      16.87445808      23.98281984 
Ag      27.02984713      18.83861064      19.16063368 
Au      26.04897654      21.38674222      32.63415573 
Au      12.48083895      18.85898519      22.04927997 
Au      22.98856244      21.13570968      16.87216701 
Au      26.34777507      29.23000959      19.77470332 
Au      20.11737349      19.68028638      32.48380906 
Au      26.10332684      17.16173503      29.74860010 
Au      29.28334565      18.72970898      22.79719513 
Ag      27.68239107      29.80152359      29.31746652 
Au      15.23992087      22.37920609      27.53506206 
Au      26.08889689      20.86077416      17.22685966 
Ag      24.68964871      23.79820585      33.55560888 
Ag      23.57008265      25.12852223      16.48010416 
Au      17.56380385      17.93382041      28.15879171 
Au      19.06747446      30.45008697      27.50746762 
Au      23.54131548      29.52195990      19.22938270 
Au      22.43551145      25.64319159      22.44601214 
Au      16.22867927      20.00706079      29.47147435 
Au      27.50710194      19.10026168      31.38492360 
Au      29.16345566      28.96863497      20.52644549 
Au      16.49719625      24.43354150      29.11811348 
Ag      32.08255572      22.81448884      26.11567928 
Au      16.56721587      21.67709562      18.79058950 
Au      24.90103036      31.68369129      20.69606290 
Au      22.00002301      31.76639917      20.29142495 
Au      20.69565360      25.39373179      16.05135585 
Ag      24.32339031      31.97171544      23.89369707 
Au      20.65338429      29.75576796      18.73418465 
Au      23.17480234      15.01321664      21.50301705 
Ag      30.39828242      22.60025429      19.61710663 
Au      25.04612263      22.89622353      15.43731526 
Au      18.69808203      23.71983236      17.28414489 
Au      28.92905642      20.69215201      17.97154839 
Au      17.67705580      22.51533814      31.07144728 
Ag      17.19112136      28.73565778      28.85200021 
Au      27.86258701      16.79892168      21.01151227 
Au      15.70981414      26.76936049      27.23072578 
Au      18.79581551      15.62973855      27.06561747 
Ag      19.62315329      15.45325830      23.96686210 
Ag      18.18353515      26.72010470      30.76143742 
Au      20.25304861      15.44493130      21.16417510 
Au      27.28698005      31.60778861      24.23722900 
Au      24.84129554      15.20496644      28.21714299 
Au      23.96367933      23.33079520      21.41900067 
Au      20.04988499      21.26680909      16.37784038 
Au      27.87172221      22.75422741      15.90105048 
Au      31.39453141      20.44095950      21.75231707 
Au      26.80005307      31.80288601      27.46487372 
Au      25.75117147      14.93313287      25.12577817 
Au      28.74011833      16.25662858      28.80570311 
Au      26.01864093      14.94047601      22.19665551 
Au      32.57791794      22.63384574      23.27967918 
Au      25.67568142      30.53640022      31.34957110 
Ag      22.87984599      30.99131595      30.72007208 
Au      24.26365517      16.95841239      31.97114623 
Au      31.33125999      17.84295396      24.73746455 
Au      16.99066215      26.06528889      18.62630825 
Au      31.55248286      23.04089223      28.87767763 
Ag      29.40895916      15.99865419      25.92217368 
Au      15.57590870      29.28515651      23.95069869 
Au      16.03585447      29.04264850      21.07412543 
Ag      17.00324034      31.26196627      25.60735516 
Ag      29.44517484      24.81076105      17.87537425 
Ag      30.78057935      18.01566328      27.62041518 
Au      18.58794822      17.59444211      30.91174010 
Ag      23.98284110      19.64281408      33.68094051 
Au      18.08763515      30.76654049      19.75352203 
Au      17.45882912      31.06971520      22.67160770 
Au      14.20176199      27.13532739      22.40980325 
Au      32.62059720      19.98181193      26.40661627 
Au      24.81747370      25.57137940      25.94276501 
Au      32.86507185      26.88524399      23.04162112 
Au      24.72832451      20.01876155      14.91521204 
Au      20.02331677      31.06696327      30.14876509 
Au      31.77365223      27.77369886      27.09649509 
Ag      23.76924166      28.66456064      32.52597894 
Au      29.86862070      15.89191485      22.99544577 
Au      22.60768896      17.00776020      34.56124325 
Ag      14.01556318      19.35363822      27.70981735 
Au      24.15538775      27.84604154      15.59810022 
Au      15.15299896      17.49398592      30.73706729 
Au      25.74822019      25.61953450      14.67244204 
Ag      28.53751695      30.58331288      32.18119039 
Au      22.61394168      30.08600852      16.61371372 
Au      22.10740597      21.78391014      34.95644547 
Au      31.40037201      28.27476387      31.58370767 
Au      19.26361127      13.96037417      29.47711119 
Au      22.18763288      25.16037367      12.83102096 
Au      15.95781846      14.74284089      28.00992159 
Ag      25.15602389      32.88718327      29.59927270 
Au      26.72666621      14.53777313      31.06310356 
Au      28.55144435      13.37013408      24.02032964 
Au      16.17354360      17.05367568      19.38341776 
Au      16.17120351      17.33400915      23.18003791 
Au      20.64472640      15.41651111      17.63616615 
Au      11.81391184      24.67839651      23.07357262 
Au      14.71752219      30.23537957      27.28709976 
Au      24.38215297      21.35999241      26.15354286 
Au      14.96561979      19.78792989      20.13639750 
Au      25.53641500      31.19890714      17.97577953 
Au      28.67397196      20.28116762      14.45884926 
Au      30.16694596      27.01862742      22.46791736 
Au      31.12480420      24.93818073      24.25323185 
Ag      31.81137335      24.79241947      21.39959527 
Au      20.49610047      23.82192860      23.79152591 
Au      25.30473359      14.81132482      16.04540926 
Au      30.74343220      29.73348445      25.04971041 
Au      25.79238966      23.41562043      27.84758033 
Au      27.03901651      27.63472038      16.39201427 
Au      20.72294641      31.44528405      33.13989077 
Ag      17.63554811      24.04355949      23.28798740 
Au      23.01526879      19.31376446      24.48068956 
Ag      27.82352593      20.97058953      23.85196305 
Au      19.57383109      25.92034671      21.92570549 
Au      24.96864430      30.90131058      14.77000359 
Ag      25.25262656      19.25877689      27.96315874 
Au      19.01046917      26.13864056      24.83524833 
Ag      20.51857038      28.18819364      26.42487179 
Au      21.42891300      26.04989368      28.25708151 
Ag      29.20927999      23.04177931      25.53084378 
Au      19.13745230      21.76371418      22.16884992 
Au      24.54004227      17.05743358      23.38206036 
Au      22.94040373      28.17821854      29.88144888 
Au      20.68247027      19.50110199      21.06793965 
Au      20.50437664      22.23157786      31.29336139 
Au      24.84808898      30.06737716      28.71404819 
Ag      18.04194991      28.27215269      22.99429870 
Au      28.19165878      18.97942588      28.53186392 
Au      19.05038695      20.16286950      29.77018797 
Au      29.80939848      22.79782770      22.64221758 
Au      19.55011194      21.58556978      19.17491195 
Au      18.23643279      17.76103019      25.23240780 
Au      15.73981470      22.18241968      24.59351842 
Au      16.66659747      26.19454911      21.45989084 
Au      26.51564525      24.88403795      17.29476633 
Au      28.07920224      29.51267989      26.26271331 
Au      17.23117622      19.92000861      23.59114321 
Au      18.86197525      17.67758259      22.35521845 
Au      30.70171465      20.70946906      24.50679522 
Au      22.09208581      27.43388712      17.64734888 
Ag      21.08114769      19.36631649      18.21302056 
Au      22.19221385      17.25227897      19.79211704 
Au      21.87018577      15.38157237      27.54783448 
Au      19.13407819      24.49820566      32.45163529 
Au      26.59360816      25.58506764      32.39317286 
Au      14.79940391      24.29809475      22.79546984 
Au      29.62114192      20.77044286      30.22239467 
Au      23.80862324      32.08210823      26.75958801 
Au      22.46518150      15.12700484      24.76328677 
Au      25.03516954      16.93856486      20.29952085 
Ag      28.56626386      27.71922960      31.18595998 
Au      19.25613314      17.50895355      19.45022931 
Au      27.75305441      31.26718207      21.46492022 
Au      15.26406728      24.08224889      19.95264331 
Au      21.39692800      17.19681827      31.45237347 
Au      21.23225555      32.14054449      23.09795692 
Au      14.23266245      24.46113185      25.51587037 
Ag      22.25964915      22.97807133      14.78656357 
Au      30.67145451      26.77613682      19.51234046 
Ag      18.20308324      19.49616177      17.70294665 
Au      22.83340616      18.16523023      16.38181715 
Au      15.54374782      17.41934230      26.09755998 
Au      30.28970638      30.03605655      28.00669238 
Au      29.87503352      18.31500466      19.92310572 
Au      13.60319826      21.67124454      22.68098052 
Ag      30.42130476      17.72033224      30.79566811 
Au      26.92406414      16.01061375      18.41879656 
Au      20.74646416      32.31484213      26.30704577 
Au      19.23681380      27.95789814      17.18316849 
Au      25.80643961      17.98526696      16.62467075 
Ag      14.48409893      19.52647133      24.44861945 
Au      19.06732496      33.46561367      20.75777975 
Au      23.81571525      21.87293970      12.34829187 
Au      34.74333983      22.55255191      27.44069364 
Au      28.88051644      32.85034819      29.51797747 
Au      19.27037394      31.24335221      16.48888969 
Au      23.50760690      15.06780858      18.69838022 
Ag      14.11726286      27.02853098      19.40806941 
Au      21.02276637      26.78640235      34.37550364 
Ag      19.89687055      28.68637521      32.21945024 
S      20.80646080      15.93197281      33.47665147 
S      28.62038346      32.52938263      19.54292154 
S      24.06856789      22.84278170      35.78235235 
S      24.36136175      18.14858115      35.64170758 
S      12.33007356      18.20426661      24.30028700 
S      32.40425329      17.43446190      29.41999538 
S      31.53324097      14.87569252      21.53725441 
S      29.89435941      19.28061306      16.21001538 
S      28.29444396      21.92429623      33.42159117 
S      23.11644943      27.82779285      34.76645424 
S      13.60117657      30.00287327      25.22859137 
S      16.32858589      17.92462759      17.17503344 
S      32.80371735      23.21702156      19.74521707 
S      26.51664514      30.79010205      33.61162193 
S      22.77314805      32.52123457      32.72488068 
S      17.20297230      31.48759606      17.59335927 
S      11.29848673      22.37968932      23.00543837 
S      25.02439803      13.26114993      26.74590132 
S      33.85198967      29.05545776      27.51569935 
S      28.44637277      26.63267706      33.53600436 
S      23.87162050      24.09699108      11.56959854 
S      27.46532344      25.75016949      12.93262861 
S      19.26575951      33.38014003      30.16426834 
S      28.86218491      17.52498578      32.66235916 
S      21.31864954      34.01613423      24.64947181 
S      30.78964257      32.38504645      28.20119457 
S      28.94216877      29.12663436      16.25349137 
S      33.55694121      17.26300506      23.86533374 
S      34.87929600      21.87792409      23.53258120 
S      19.11958463      13.65120358      25.58530963 
S      20.86852126      33.67288327      19.24056307 
S      12.60816768      19.44079270      19.76349014 
S      18.69281908      30.34809575      33.64370928 
S      31.81334829      31.02227615      23.29269591 
S      35.23845796      27.24644833      23.38979700 
S      30.96841591      30.55325676      31.97052156 
S      23.08416571      13.29787860      23.24600739 
S      32.10750773      19.27328027      19.70906137 
S      28.79460964      14.66201271      17.66189362 
S      15.58771359      30.55557771      29.45284436 
S      31.64773802      21.86341335      31.03142642 
S      20.45515954      26.38193884      13.83489414 
S      17.17302318      26.96588101      16.35063649 
S      27.43519343      12.95365776      21.97348906 
S      16.84142991      33.69387739      26.16237321 
S      15.42772506      21.59425450      31.20520903 
S      21.05830914      16.68436572      15.65537036 
S      24.64351002      28.98037422      13.44691414 
S      20.01443371      21.97201961      14.05927878 
S      21.17486969      31.33538673      15.10214490 
S      23.40983539      34.00742757      28.19442756 
S      13.37040296      17.44204641      29.20462976 
S      24.44944705      33.66238908      22.03851564 
S      27.63338226      21.06863923      12.48604912 
S      16.39687301      23.03841306      16.76702243 
S      26.10073298      16.52383570      14.64259817 
S      16.97399764      14.10744131      30.04369328 
S      28.62443254      14.01437871      29.75906957 
S      27.15046725      33.73785849      30.84919865 
S      32.70561038      28.21361347      19.58102454 
S      25.01793639      14.74216575      32.66862825 
S      14.39557550      29.45190062      19.29923663 
S      13.43659356      25.83198196      27.36921384 
S      34.61065054      20.22993925      27.80028644 
S      30.22535862      23.53135199      15.90010306 
S      18.84356010      25.82878844      34.48437267 
S      35.30560509      24.81366364      27.13900274 
S      19.99660965      20.71043274      34.67344173 
S      32.05323466      26.04551673      31.23221459 
S      23.68321357      19.55902068      12.77341219 
S      17.23408640      33.48267623      22.23947726 
S      15.74152212      26.18527735      30.67295381 
S      11.84000489      27.04056693      23.01569859 
S      24.39744423      13.17434539      17.47678621 
S      13.06115684      24.83072960      19.21187158 
S      21.55373551      13.53417302      29.13230908 
S      16.74998514      17.48836563      32.47943613 
S      15.74543188      15.78706604      21.36263187 
S      14.75023626      15.09061276      26.01523411 
S      25.34300194      32.77511797      16.14993569 
S      29.77448303      13.51673601      26.02984686 
S      20.04203294      13.83231143      19.31364413 
S      27.20666388      33.52761001      25.72413696 
S      12.94626418      21.59680369      27.36233896 
C      21.31067208      14.19165198      33.20137701 
C      30.39161123      32.85704692      19.89493169 
C      23.45610177      24.21294437      36.84116174 
C      23.64734732      18.95066123      37.13090728 
C      10.94765655      19.17859937      25.01023967 
C      32.67116827      15.62297274      29.26676911 
C      31.53142569      13.04830875      21.72593919 
C      31.58545405      19.94755147      15.96935472 
C      28.08767050      22.93200544      34.93918129 
C      22.75835249      29.30151751      35.80122548 
C      13.27406029      31.70760730      24.63180855 
C      16.96624808      16.54764862      16.14233211 
C      33.26601015      24.22696017      18.28511863 
C      26.30348061      32.52939558      34.14712120 
C      22.35016161      34.21128598      32.14934451 
C      16.94727360      33.30506596      17.57970528 
C      10.50235736      22.21628529      21.35832934 
C      26.47313962      12.26570987      27.25576717 
C      34.76424651      28.19660634      28.85413283 
C      27.69552699      27.65482027      34.85847931 
C      23.10439592      23.98173870       9.90079488 
C      26.72533653      26.36979901      11.37662139 
C      17.83427179      33.40950973      31.31385018 
C      29.61386619      18.45654355      34.05398109 
C      19.86130790      35.08625417      24.36532009 
C      32.28012988      32.59508845      29.24590760 
C      28.73742775      30.08285825      14.70278238 
C      34.52892292      16.69169187      25.31365958 
C      35.65042030      21.96548217      21.86874127 
C      17.50495752      12.92015571      25.11955003 
C      21.78443608      35.17176970      19.76974445 
C      12.42584706      17.90014037      18.78280709 
C      18.80578735      29.82918714      35.40200707 
C      33.51418799      31.42331979      23.84565366 
C      35.75131859      28.62942970      22.29955265 
C      31.55179806      30.80902926      33.69699991 
C      21.58433317      12.31040229      22.89347962 
C      33.30905189      17.96356463      20.15391019 
C      28.29045039      12.91475273      17.92130553 
C      14.33741674      29.81005304      30.57435114 
C      33.03812903      20.67716680      31.10560473 
C      18.93180922      25.60665112      13.16561916 
C      15.94561704      28.29795510      16.08476145 
C      26.34771712      11.50909252      22.28362212 
C      15.22309609      34.08825001      26.93844462 
C      15.30269601      20.75036936      32.82699716 
C      21.80900167      15.51173040      14.46279833 
C      23.06039399      29.22243878      12.55615854 
C      20.22193477      20.45728235      13.04994711 
C      21.67321697      33.09668936      15.23897602 
C      24.20482091      35.42546449      27.34648512 
C      11.93836250      18.10391487      30.14852895 
C      26.02872889      34.58772907      22.09775857 
C      28.97552185      20.93099407      11.23573190 
C      16.39451089      21.85842728      15.36715768 
C      27.88745209      16.22087333      14.38254067 
C      16.48928153      12.34329947      30.23407278 
C      29.92014983      13.81833669      31.04565388 
C      27.20864655      35.54101453      30.48956896 
C      32.56700474      29.38707662      18.17670382 
C      25.98153914      15.02158655      34.20652792 
C      12.94080768      30.17688837      20.15333242 
C      12.19783257      27.01118624      26.72379520 
C      36.09572689      19.63170993      26.90022516 
C      30.50663733      24.75433014      14.56607364 
C      18.94812825      24.61618480      35.86030437 
C      36.57260152      24.72320334      25.81437448 
C      19.94612694      19.37807877      35.93124760 
C      31.97664065      25.28153704      32.89837773 
C      24.91380816      18.74620309      11.68650190 
C      15.73707656      33.62812802      21.18785906 
C      15.33725417      25.39052311      32.27501097 
C      10.81420834      27.37671294      21.52882026 
C      22.99403840      12.38230282      16.59759290 
C      12.94224680      24.46711020      17.41666466 
C      21.54788062      12.04235256      28.06623845 
C      16.73510535      15.83088564      33.25796346 
C      13.95347333      15.40666882      21.35513375 
C      12.97239945      15.05443268      26.45692423 
C      27.02441812      33.41607528      15.79155233 
C      31.52977706      13.28586874      25.54166953 
C      18.24805739      13.53382240      19.07109675 
C      28.91953875      34.17357660      25.77400837 
C      12.20423720      22.08670213      28.96741406 
H      22.35103603      14.12266295      32.86638825 
H      21.18421492      13.65040213      34.14630287 
H      20.64449284      13.77522296      32.43484826 
H      30.86141355      33.23706798      18.98061773 
H      30.43581986      33.62036718      20.68088988 
H      30.90614380      31.95236407      20.23978659 
H      24.33461169      24.76894477      37.19044367 
H      22.80222039      24.89257542      36.28319143 
H      22.92300468      23.79177873      37.70050097 
H      23.33487378      18.17994872      37.84349447 
H      24.44269623      19.56449134      37.57077460 
H      22.80449769      19.60156855      36.87429690 
H      11.02285028      19.09946526      26.10163583 
H      11.00589802      20.23256072      24.71889759 
H      10.00110342      18.74550782      24.66813194 
H      33.50770244      15.46813712      28.57468884 
H      32.93299713      15.20919194      30.24705545 
H      31.78104176      15.11928827      28.87510739 
H      30.51473650      12.65512082      21.83145015 
H      32.00854321      12.61818489      20.83765844 
H      32.11761559      12.78970523      22.61529924 
H      31.55702633      21.03087698      15.80431517 
H      32.15505270      19.72134867      16.87960372 
H      32.03240137      19.44091881      15.10645058 
H      27.51978830      22.35794334      35.67928394 
H      29.09242348      23.14686686      35.32374742 
H      27.57520626      23.87643383      34.72015867 
H      22.06841764      29.98956266      35.29601028 
H      22.33921147      28.97650819      36.75987000 
H      23.71468063      29.81172672      35.97065818 
H      12.57022838      32.19000905      25.31939923 
H      14.19912477      32.29059982      24.56713564 
H      12.81968408      31.62275018      23.63737871 
H      17.12135484      16.94247272      15.13100637 
H      17.91827064      16.16271632      16.52710099 
H      16.21852000      15.74742369      16.11354682 
H      32.51044219      24.99580434      18.07802244 
H      34.22953760      24.70890218      18.48681849 
H      33.35372230      23.56240669      17.41786965 
H      26.74162221      33.22202983      33.42089995 
H      25.23095338      32.73100039      34.25325982 
H      26.80561501      32.63192650      35.11682388 
H      21.55899139      34.19324817      31.39179874 
H      22.03090713      34.80460830      33.01343285 
H      23.25994738      34.64417205      31.71523325 
H      16.00661602      33.51003200      18.10413512 
H      17.77167743      33.82713388      18.07816374 
H      16.86415508      33.63277051      16.53738966 
H      11.10410303      22.69756195      20.58029434 
H      10.40350526      21.14537031      21.14282399 
H       9.51273368      22.68389875      21.41342709 
H      27.34290296      12.88783852      27.48385812 
H      26.18892690      11.69557800      28.14834296 
H      26.72027321      11.58138667      26.43510189 
H      35.75691796      28.65434761      28.93629241 
H      34.20085455      28.35031497      29.78345901 
H      34.86228433      27.12516419      28.65123209 
H      27.56140391      27.02426814      35.74532190 
H      28.37796826      28.48102597      35.09080111 
H      26.72924303      28.06591187      34.55084414 
H      23.00232378      24.99844290       9.50411928 
H      23.77961601      23.40072075       9.26232733 
H      22.12460061      23.49804599       9.94411421 
H      25.83960491      25.78720469      11.10399970 
H      26.44629708      27.41719234      11.54536293 
H      27.48434507      26.30153904      10.58868054 
H      18.21294068      33.20932716      32.32407345 
H      17.38603007      34.40871284      31.26836291 
H      17.09277799      32.65190599      31.03866450 
H      30.48397368      17.89633229      34.41470786 
H      29.90962540      19.46452537      33.74590659 
H      28.86486219      18.53405735      34.85103909 
H      18.93070285      34.51339823      24.32611163 
H      19.81125705      35.80214919      25.19466894 
H      20.00782386      35.61704914      23.41694247 
H      32.15912664      32.10190404      30.21603732 
H      33.12195931      32.15088260      28.70080610 
H      32.44563483      33.67026040      29.38099219 
H      29.50611363      30.86341251      14.66633525 
H      28.88126878      29.38301246      13.87056824 
H      27.73462413      30.52667624      14.63390719 
H      34.31921698      15.62415804      25.45231282 
H      35.59589645      16.82823975      25.10377010 
H      34.24987223      17.23776014      26.22105786 
H      34.93041500      21.72028384      21.08095550 
H      36.00504671      22.99195126      21.71728719 
H      36.49848708      21.27195594      21.84371040 
H      16.99967456      12.55450861      26.02168661 
H      16.85896484      13.64652933      24.61755842 
H      17.70936163      12.08095796      24.44318099 
H      22.67117879      35.24919716      19.12891895 
H      21.14056903      36.04606257      19.62406422 
H      22.10430390      35.09495563      20.81405606 
H      12.65375681      18.15199832      17.74026516 
H      13.11900495      17.12334762      19.12062174 
H      11.38943140      17.55472194      18.86855441 
H      18.82810058      30.71747519      36.04234775 
H      17.90677678      29.23886569      35.61678575 
H      19.68825668      29.20564372      35.58253903 
H      34.04070239      30.53011538      24.21004543 
H      34.05981339      31.87479895      23.00896394 
H      33.42725220      32.14910247      24.66321170 
H      35.88205430      28.21472751      21.29296992 
H      34.99138214      29.41691759      22.26400117 
H      36.70254152      29.02892313      22.66883370 
H      31.09194608      30.09505576      34.38640992 
H      32.64161880      30.69621854      33.72000872 
H      31.28219579      31.83045321      33.98982639 
H      21.36706504      11.70195706      23.77934670 
H      20.72759793      12.95995426      22.67352912 
H      21.79322999      11.66735033      22.03069335 
H      33.42697812      17.30477580      19.28515715 
H      34.26574583      18.44765999      20.38653611 
H      32.97785420      17.37453756      21.01395045 
H      27.49372853      12.67088021      17.20823481 
H      29.16776617      12.28480061      17.73225297 
H      27.93244577      12.75222933      18.94348702 
H      13.40201640      30.37545642      30.50505637 
H      14.16777517      28.75428488      30.33786247 
H      14.74122522      29.88905856      31.59129106 
H      32.88328905      20.02600207      31.97455143 
H      33.11058539      20.06760676      30.20115470 
H      33.96203906      21.25455344      31.23082787 
H      18.98887700      24.51378381      13.21820779 
H      18.09572829      25.96874078      13.77736097 
H      18.81139081      25.93365734      12.12659692 
H      15.92440400      29.01116678      16.91318946 
H      16.21432163      28.82225684      15.15979047 
H      14.95941440      27.83004027      15.97622741 
H      26.97660909      10.63373552      22.48031078 
H      25.67327321      11.69561484      23.12556700 
H      25.75619360      11.34787575      21.37420989 
H      14.50239908      34.25352950      26.12845333 
H      14.87546109      33.26888309      27.57791828 
H      15.32380195      35.00795311      27.52493881 
H      15.05733500      21.51092194      33.57794435 
H      14.50010829      20.00484865      32.77169338 
H      16.23899996      20.25140030      33.09377971 
H      22.01878458      16.07414192      13.54476712 
H      22.74580474      15.08936546      14.85098327 
H      21.08675128      14.71486287      14.25108139 
H      22.29436532      29.65622790      13.20740172 
H      23.24736137      29.88616102      11.70400919 
H      22.73172544      28.23699968      12.20153075 
H      19.23062277      20.02215320      12.87644954 
H      20.67927773      20.73538477      12.09279764 
H      20.86113695      19.72562163      13.55339339 
H      22.66826169      33.19824841      14.78936878 
H      20.94378171      33.69659328      14.68278935 
H      21.70198683      33.41722728      16.28550438 
H      24.25472697      36.26086649      28.05532986 
H      25.21099082      35.17008166      26.99472371 
H      23.57914597      35.70458896      26.48983078 
H      11.69138952      17.40999981      30.95986835 
H      12.15565959      19.09372298      30.56118989 
H      11.08939614      18.17506113      29.45783141 
H      26.25964240      34.96937551      21.09714293 
H      25.89137708      35.42236719      22.79623773 
H      26.84664631      33.94663245      22.45019449 
H      29.88291933      21.44350809      11.56710367 
H      29.18505155      19.86648506      11.07953202 
H      28.61390897      21.37946471      10.30339812 
H      15.44339484      21.31411109      15.38239014 
H      16.48752918      22.43688827      14.44023134 
H      17.23338208      21.15548092      15.43990340 
H      28.36942343      15.86030199      15.29846656 
H      27.98962844      15.47342540      13.58708418 
H      28.33885301      17.17149305      14.06979267 
H      15.40480701      12.30927006      30.38912906 
H      16.75740703      11.75701612      29.35077920 
H      17.00360399      11.94433899      31.11598567 
H      30.87186308      13.62921713      30.53664252 
H      29.99975769      14.71362315      31.67199258 
H      29.65517521      12.95134565      31.66141943 
H      27.09341437      35.73591773      29.41913401 
H      26.38512846      36.01416118      31.03816879 
H      28.16337225      35.94759876      30.84162163 
H      32.77197266      28.82394127      17.25823637 
H      31.56325174      29.82401005      18.11685781 
H      33.31799145      30.17501554      18.30298223 
H      26.74425165      15.79306398      34.05583168 
H      25.27943355      15.33895748      34.98716852 
H      26.45428583      14.07275985      34.48452153 
H      12.79994534      29.72949145      21.14261502 
H      13.11474626      31.25417119      20.26185310 
H      12.04960497      30.01192742      19.53660834 
H      12.50953405      27.45983377      25.77701025 
H      11.25896643      26.46425635      26.57545450 
H      12.05857598      27.80084399      27.47224774 
H      36.07894924      19.94284988      25.84970914 
H      36.98179086      20.04073967      27.39858656 
H      36.10923411      18.53835735      26.96927486 
H      29.84415731      25.61995678      14.66305230 
H      31.55111805      25.08141436      14.64203575 
H      30.33594554      24.27625624      13.59393935 
H      19.79439462      23.93282124      35.72825099 
H      19.04904364      25.16986673      36.80067739 
H      18.01442398      24.04147738      35.86485513 
H      36.76922072      25.74657090      25.47308434 
H      37.48066409      24.28753211      26.24648165 
H      36.22095310      24.10998415      24.97750281 
H      20.02161875      19.83228292      36.92592285 
H      18.97945943      18.87049310      35.82864765 
H      20.75655441      18.65174866      35.78005433 
H      32.04156730      24.19525509      32.75605348 
H      32.83758184      25.63858491      33.47503037 
H      31.04296701      25.53911413      33.40993899 
H      25.84574320      19.31974686      11.64994310 
H      25.10433919      17.74923927      12.10266253 
H      24.47537896      18.66325886      10.68524890 
H      14.86772797      33.57581249      21.85444820 
H      15.75321941      34.59876271      20.67947199 
H      15.68999940      32.81408850      20.45689408 
H      15.21893438      26.18120494      33.02525584 
H      14.39821244      24.83738915      32.15906535 
H      16.13582078      24.70378072      32.58244293 
H      11.20449628      26.85487542      20.64817631 
H       9.79253152      27.04196437      21.74132886 
H      10.81599214      28.45865524      21.35539697 
H      22.46620246      11.75811891      17.32840958 
H      22.29949401      13.12595725      16.19495891 
H      23.39553376      11.75785973      15.79154858 
H      12.64776602      23.41681611      17.30434479 
H      12.17396830      25.11540265      16.98004656 
H      13.90201403      24.62492963      16.91396400 
H      22.56154452      11.93219752      27.66043047 
H      21.29279778      11.17660299      28.68791544 
H      20.82729250      12.15270862      27.24721332 
H      16.71052814      15.04227213      32.49901520 
H      17.64743494      15.74537380      33.86096897 
H      15.84956669      15.76930681      33.90128271 
H      13.34778101      16.32285776      21.38658174 
H      13.72046191      14.82240286      20.45751198 
H      13.74733734      14.80771104      22.25057389 
H      12.66927468      14.00484859      26.54693613 
H      12.78723958      15.58583101      27.39645922 
H      12.42550040      15.53946271      25.63899538 
H      27.77901014      32.62570235      15.85921957 
H      27.02163706      33.86039815      14.78987914 
H      27.24330656      34.18421281      16.54275377 
H      31.82635370      14.00723236      24.77222937 
H      32.13654669      13.44114106      26.44219446 
H      31.67360376      12.26221506      25.17857115 
H      18.11226967      12.99214114      18.12809511 
H      17.90023789      12.91659234      19.90797914 
H      17.68247680      14.47306029      19.05540123 
H      29.04696247      34.83478683      24.90831434 
H      29.05260397      34.74107093      26.70274437 
H      29.65513645      33.36475864      25.73579612 
H      12.03752926      23.17072742      28.94989969 
H      11.24495706      21.56590802      29.07364628 
H      12.86467460      21.83374533      29.80495685 
