699
Properties=species:S:1:pos:R:3 i=96 optimized=T E=-10972.8431724727 pbc="F F F" jobid=279_84-Ag-20_1-000001-PBE
Au      33.19247209      25.43017641      26.10609426 
Ag      31.98067283      29.29547599      21.66286031 
Ag      34.51900591      28.11924242      25.50622522 
Au      29.92155965      14.85768579      19.73233248 
Au      34.08098625      19.60433903      23.77939337 
Au      27.43279536      23.43876541      13.01327503 
Au      18.17611267      33.28167619      28.07394149 
Au      28.57510594      30.73456496      17.99813743 
Au      24.97109362      21.21794954      23.25371525 
Au      26.31739904      23.23785785      24.93368914 
Au      28.22674116      25.13886695      23.68006415 
Ag      23.77697917      21.59067511      29.04416481 
Au      23.37615200      27.93025050      26.96093734 
Au      26.94767146      23.06730777      22.02045156 
Ag      22.36604219      19.52756123      27.38476369 
Au      27.23288343      21.12256604      26.72519849 
Au      22.05594861      21.48997857      22.73331893 
Au      21.03916202      23.55378090      20.89193283 
Au      27.66783661      25.35383231      26.58394381 
Au      19.97028703      24.04572924      26.74305221 
Au      25.51396250      21.05126650      20.34952484 
Au      24.35824370      25.73914604      28.80309771 
Au      23.88288406      27.74099576      24.01330869 
Au      26.22589258      27.69908966      27.60208007 
Au      20.89372647      21.89126288      28.45215986 
Au      22.90512645      23.69887712      27.22253719 
Au      21.49940247      21.67739400      25.62292598 
Ag      19.50463861      19.80900173      26.92622527 
Au      25.85672389      19.10222241      25.10566675 
Ag      25.29480801      23.57807631      30.75573155 
Au      23.01210847      25.35751981      19.59201414 
Au      21.01119626      27.93020968      23.53228922 
Au      26.67592504      27.48676038      24.69974971 
Au      22.61644769      21.34629493      19.85420176 
Au      21.94593123      25.85330220      25.37156271 
Au      27.22918863      25.50512741      29.45449361 
Au      20.17934083      19.63174499      24.07449126 
Au      25.90961452      25.07430792      20.19641194 
Au      23.55330358      19.14977234      21.62700551 
Au      22.36031369      23.89728873      30.07075884 
Au      21.04271068      17.41982142      25.86349289 
Ag      21.57054060      27.65610625      20.59832908 
Ag      24.44124789      27.44463120      21.18195329 
Au      24.57846058      23.10083193      18.51608220 
Au      28.65788111      23.17346977      28.46711358 
Au      18.62873859      21.95590055      25.15098393 
Au      26.69464141      21.25478898      29.63226711 
Au      22.40026091      30.11601919      25.10083770 
Au      27.26466236      27.20108033      21.85354546 
Au      21.74775471      19.72759703      30.22479084 
Ag      18.48609062      26.39064359      27.73662918 
Au      23.15855335      21.75899420      31.94634050 
Au      21.63465680      23.38058013      17.88215361 
Au      17.05250209      24.29102031      26.20930246 
Au      27.50642648      22.78845616      19.04063705 
Au      23.87920972      17.16294322      26.38297955 
Ag      23.22689809      17.43015574      29.24423738 
Au      25.23777809      29.85538202      25.74222264 
Au      21.66934254      17.18383022      22.89077895 
Au      28.77733801      18.76022977      25.69792790 
Au      22.89259213      29.78712282      22.18024142 
Au      25.35804732      25.36770956      23.04870413 
Au      20.06768825      25.59554575      18.93928890 
Au      29.57365435      27.24952613      25.40234011 
Au      19.39574090      24.29959894      29.60954884 
Ag      17.95365322      22.17950820      28.00132246 
Au      20.03072834      28.39634760      29.38637001 
Au      23.77149475      25.83166183      31.68013325 
Au      20.98637979      26.39724216      31.23482764 
Au      26.41858168      18.93624309      22.14659223 
Au      24.59884333      19.48325731      30.88071002 
Au      20.32454030      17.57991109      28.75860992 
Au      28.93115806      24.86723764      20.76942960 
Au      19.54572024      30.18672201      24.57160552 
Ag      25.78942859      29.65014153      22.78077243 
Au      24.96394959      27.10921182      18.24354755 
Au      28.44180923      20.77389196      20.89984682 
Au      29.16350242      27.52396791      28.27388141 
Au      30.08875045      20.93042960      27.33746014 
Au      18.16918718      23.83374594      20.35324508 
Au      17.71574839      19.65322392      20.71742577 
Au      25.72011534      27.74626067      30.49566303 
Au      28.16852687      23.44900253      31.27238805 
Ag      21.94924564      30.27500503      28.04070215 
Au      21.80529213      24.14577544      32.94210015 
Au      18.66491356      27.90316307      20.06177028 
Ag      16.30257799      21.92812709      21.71470670 
Ag      30.54181040      25.12740903      27.20577942 
Au      23.45249957      23.51814187      24.34185139 
Au      20.04396363      30.00137773      21.64463965 
Au      16.52458775      20.04912741      26.45188282 
Au      26.72787217      16.98965533      26.94137179 
Au      30.01053979      25.29488909      30.03313980 
Ag      17.58824005      28.44893477      25.90489302 
Ag      16.20037546      26.33878467      24.33421916 
Ag      28.58673695      29.29148474      23.38420545 
Au      27.86845327      26.91035948      19.03617422 
Au      24.15249404      19.03371098      18.69888928 
Ag      27.37152876      16.80026111      23.98838724 
Au      26.98386098      18.77214285      19.19309892 
Au      25.98125229      21.40505541      32.64897612 
Au      12.48408359      18.89101127      21.93239885 
Au      23.16790163      21.09258366      16.94133795 
Au      26.35147747      29.24128038      19.80884848 
Au      19.96612510      19.66741830      32.46536912 
Ag      26.10031187      17.15806321      29.82568772 
Au      29.26725631      18.65165687      22.77205314 
Au      27.66873727      29.82044491      29.29271638 
Ag      15.15422406      22.42421288      27.44092165 
Ag      26.12808595      20.84070973      17.28973658 
Ag      24.55869337      23.82730432      33.58843728 
Au      23.61286186      25.12568539      16.52489364 
Au      17.53697646      17.96262278      28.17328704 
Au      19.10413587      30.47120373      27.49355032 
Au      23.54081820      29.47856333      19.23567187 
Au      22.47622946      25.61005966      22.45711415 
Au      16.12096802      20.05063783      29.37375702 
Au      27.45544423      19.15462262      31.40646789 
Au      29.14404208      29.01433833      20.57772072 
Au      16.44960607      24.54994369      28.95156844 
Ag      32.02621086      22.81766897      26.18996271 
Au      16.68848663      21.61908569      18.84650646 
Au      24.91719091      31.61873565      20.70746294 
Au      21.99114657      31.70774976      20.28534241 
Au      20.70975645      25.37683223      16.09650520 
Au      24.31133659      31.92778596      23.92709255 
Au      20.62042083      29.67201145      18.73757381 
Au      23.11391487      14.91109489      21.54091198 
Au      30.31724106      22.53932145      19.62042279 
Au      25.18882090      22.87101403      15.53811915 
Ag      18.74166003      23.59200944      17.30000742 
Ag      28.95314549      20.56770935      17.95775290 
Au      17.55323046      22.61638915      30.95913376 
Au      17.21732279      28.72601259      28.78623434 
Au      27.89787926      16.66556997      21.04548538 
Ag      15.57808710      26.84750998      27.15082915 
Au      18.77908168      15.65025331      27.17438545 
Au      19.65284601      15.38614537      23.95306208 
Au      18.05587280      26.73722675      30.78570732 
Au      20.15050202      15.32214319      21.17647602 
Au      27.30659476      31.68094595      24.25229140 
Ag      24.91635312      15.12049853      28.28273295 
Ag      23.99074568      23.31612096      21.45266878 
Au      20.21671552      21.12764216      16.38458964 
Au      27.98483501      22.76913328      15.96803052 
Au      31.43508957      20.36682194      21.83626281 
Ag      26.85336898      31.91077708      27.51134362 
Au      25.59971883      14.91489689      25.23845251 
Ag      28.68438765      16.16372474      28.83933255 
Au      26.01437197      14.86956245      22.32973062 
Au      32.55010663      22.64693453      23.34734844 
Au      25.70355580      30.49193265      31.33005381 
Au      22.92145182      30.85837531      30.77111668 
Au      24.13285114      16.94799623      31.91721180 
Au      31.30091313      17.85773966      24.73728927 
Ag      17.06394376      25.96988695      18.53635929 
Ag      31.52430913      22.91775220      28.98258989 
Au      29.35165637      15.99924618      25.95549221 
Au      15.57126313      29.18673512      23.90569998 
Ag      16.05091663      28.96628243      20.96879935 
Au      17.01698808      31.20815003      25.50491507 
Ag      29.49136584      24.84952136      17.92054499 
Au      30.74713707      18.01495155      27.66034897 
Ag      18.42479430      17.58794560      30.94506617 
Au      23.97176519      19.73338689      33.69492548 
Au      18.09213175      30.74275277      19.75912015 
Au      17.46717907      31.02837737      22.61050419 
Au      14.24699795      27.05306902      22.32800981 
Au      32.62465205      19.97670567      26.40900659 
Au      24.82064034      25.57947390      25.94385516 
Au      32.96296390      26.78736391      23.17779885 
Ag      24.74336359      20.09559503      14.80720691 
Au      20.11228639      31.09325786      30.13578787 
Ag      31.83386866      27.81456771      27.07341026 
Au      23.68492894      28.54706409      32.51158469 
Ag      29.90766646      15.86023250      23.03689845 
Au      22.44830687      16.97353148      34.51092406 
Au      13.34708101      19.54952981      28.48935915 
Ag      24.08497826      27.87237159      15.54434339 
Au      15.23906589      17.45177754      30.95073997 
Au      25.66065198      25.64907186      14.67101875 
Au      28.90548046      30.60307822      32.44955858 
Au      22.57928454      30.08007275      16.65620857 
Au      21.95862488      21.79678603      34.94080057 
Au      31.50525172      28.28205351      31.21579481 
Au      19.27412200      13.95503067      29.55091066 
Ag      22.87903910      25.55048704      13.73780190 
Au      15.96672274      14.74643327      28.05865644 
Au      25.54980781      33.78707864      29.36984854 
Au      26.64618402      14.48309052      30.99692114 
Au      28.60667152      13.32334941      23.96785338 
Au      16.20003406      17.13510815      19.37693070 
Ag      16.12438648      17.28850157      23.21325896 
Ag      20.84088522      15.59639716      17.69538118 
Au      11.85561524      24.66293487      23.04094708 
Au      14.57906957      30.12482235      27.01249152 
Ag      24.35286498      21.35529694      26.15495253 
Ag      14.94284988      19.83008872      20.31419170 
Au      25.51334880      31.18273020      17.98542120 
Au      28.67881228      20.28893290      14.51278517 
Au      30.20859452      27.05206285      22.55613061 
Au      31.09321508      24.95994867      24.35473754 
Au      31.86192162      24.80693156      21.49722108 
Ag      20.53858962      23.79543000      23.82195798 
Au      25.27243174      14.96869850      15.90005065 
Au      30.74277595      29.84151656      25.12610157 
Au      25.75719879      23.37628771      27.85526362 
Au      27.07224293      27.63009909      16.41257991 
Au      20.73481920      31.47031334      33.15459583 
Au      17.71538617      24.02069446      23.30799309 
Au      23.00604534      19.29330584      24.49958876 
Ag      27.80967889      20.93315943      23.84740318 
Au      19.62021407      25.88238909      21.93938153 
Au      24.89970894      30.90798269      14.80502461 
Au      25.17636605      19.26095033      28.00409643 
Au      19.04347120      26.12390967      24.87265632 
Au      20.53730780      28.15189149      26.47812959 
Au      21.43489075      26.02751318      28.29957247 
Au      29.16868273      23.08051727      25.56353887 
Ag      19.19220461      21.71429056      22.20806496 
Au      24.54534856      17.00554819      23.43744019 
Au      22.91468406      28.15814683      29.81866984 
Ag      20.72185949      19.46003821      21.14978009 
Ag      20.38080049      22.20006604      31.31884568 
Au      24.84424395      30.12627139      28.69395864 
Au      18.03170261      28.24772839      22.95656272 
Au      28.13562220      18.94287169      28.58076656 
Au      18.93225801      20.14349391      29.79371880 
Au      29.79022967      22.77539482      22.65279069 
Au      19.66326075      21.56750340      19.24571099 
Au      18.24601979      17.70293780      25.25684548 
Au      15.75250468      22.15328812      24.58596613 
Au      16.71936333      26.14267120      21.40501039 
Au      26.60511795      24.90644646      17.30253505 
Au      28.04933993      29.58664765      26.25375527 
Au      17.26659302      19.86085721      23.59530253 
Au      18.84605596      17.62842479      22.39681506 
Au      30.67665083      20.72130916      24.50386318 
Au      22.11747138      27.41603740      17.70006362 
Au      21.19790696      19.27847911      18.31227475 
Au      22.24116929      17.12112776      19.88805104 
Au      21.93934898      15.37705577      27.64789823 
Au      18.99558991      24.49472359      32.45989160 
Au      26.43255849      25.67448730      32.47283821 
Au      14.84262060      24.24744896      22.75551030 
Au      29.70314921      20.63609439      30.17825183 
Au      23.82094963      32.08874323      26.75377274 
Au      22.53827864      15.09735818      24.84727609 
Ag      25.03737762      16.86005116      20.45800126 
Au      28.57704561      27.83092246      31.10645807 
Au      19.30756409      17.48144219      19.55724781 
Au      27.79380981      31.33597844      21.52721773 
Au      15.37927082      24.02715880      19.89864943 
Au      21.24318320      17.18557121      31.44197775 
Ag      21.24646981      32.15515655      23.09751760 
Ag      14.17277942      24.48961470      25.47652722 
Ag      22.40666902      22.89556252      14.86349647 
Au      30.70692527      26.82439426      19.63574407 
Au      18.36334938      19.46715821      17.76602072 
Au      22.84318833      18.30685913      16.20207466 
Au      15.52771037      17.44006558      26.08287522 
Au      30.28139220      30.05186706      28.02041411 
Au      29.78242368      18.35747067      19.85429934 
Au      13.65033583      21.63869485      22.67028689 
Ag      30.26998061      17.71264756      30.84300580 
Au      26.85022439      16.04921307      18.38790751 
Au      20.61164585      32.34721414      26.14550198 
Au      19.16511068      27.87816612      17.19285442 
Au      25.76288912      18.05035170      16.60535293 
Ag      14.50093162      19.51724134      24.39266078 
Au      19.05444686      33.45306939      20.73854489 
Au      23.73800565      22.10091905      12.31992913 
Au      34.64803769      22.60225359      27.60744664 
Au      29.15153120      32.91994931      29.32049138 
Au      19.19782135      31.09240886      16.47232427 
Au      23.62319621      14.94566781      18.79549630 
Au      13.78290901      27.06261285      19.33818324 
Au      21.01217754      26.76932073      34.41697614 
Au      19.59151183      28.58937552      32.25170534 
S      20.65915037      15.87306690      33.45166860 
S      28.59812904      32.55232102      19.53170420 
S      23.91493103      22.83831915      35.80003851 
S      24.20767513      18.16451689      35.52754959 
S      12.37925680      18.18497636      24.17659783 
S      32.24484458      17.32985393      29.44982303 
S      31.53143690      14.82216134      21.45010241 
S      29.98229668      19.20664420      16.13901228 
S      28.25021531      22.06279588      33.28260699 
S      23.09436690      27.87488339      34.76257043 
S      13.47947220      29.97205263      24.93202931 
S      16.39044589      18.11804937      17.21687332 
S      32.66949679      23.18355975      19.83800388 
S      26.78808039      30.75534366      33.47964480 
S      22.80182242      32.47310219      32.65857673 
S      17.14106362      31.36776424      17.59972936 
S      11.31606860      22.37574246      22.89476382 
S      25.12476417      13.09255129      26.80514269 
S      33.87704838      29.18183432      27.55694989 
S      28.58477816      26.54821392      33.23443671 
S      23.75584875      24.37330679      11.71040088 
S      27.52497494      25.79616316      13.10343102 
S      19.21905326      33.36226366      30.18549632 
S      28.72073492      17.54319395      32.73756603 
S      21.27377022      34.13597956      24.66275737 
S      30.98895938      32.37567479      27.94782898 
S      28.89929382      29.21312923      16.19453313 
S      33.53192989      17.30908190      23.88761247 
S      34.84755925      21.83757542      23.63582610 
S      19.16566896      13.71356528      25.64707609 
S      20.88378103      33.63641116      19.25849594 
S      12.56410327      19.50791221      19.65453139 
S      18.71141344      30.36582411      33.64074494 
S      31.84828717      31.06970160      23.37127946 
S      35.31718950      27.25396633      23.39562379 
S      31.15419746      30.56392607      31.72789508 
S      23.04313507      13.24308396      23.32885179 
S      32.06501772      19.23802341      19.77094362 
S      28.62074805      14.49225535      17.79861920 
S      15.43760602      30.38031704      29.19272741 
S      31.57946369      21.76059574      31.23312767 
S      20.62801742      26.63519841      14.02806957 
S      17.18416064      26.89175368      16.20220153 
S      27.36303322      12.84060200      22.01991519 
S      16.82643624      33.57069204      26.15875097 
S      15.35798744      21.61068478      31.15905191 
S      21.12260431      16.75205102      15.53170400 
S      24.65753111      29.06145449      13.37915724 
S      20.07373397      22.15110261      14.19738701 
S      21.09086442      31.17616890      15.06920359 
S      23.57225665      34.08155554      28.13183259 
S      13.50666979      17.34663681      29.34632925 
S      24.36570197      33.55229800      22.09968855 
S      27.52183050      21.11318785      12.61906885 
S      16.37207456      22.92199673      16.78685558 
S      26.11365622      16.71645813      14.55880409 
S      16.97765453      14.10264520      30.09615773 
S      28.65297989      13.91589297      29.89022854 
S      27.47753915      33.79931203      30.73278979 
S      32.72879472      28.19840407      19.57683362 
S      24.84797682      14.69590305      32.50711185 
S      14.24893786      29.36928811      19.27419100 
S      13.30127803      25.84782910      27.34876308 
S      34.52044739      20.27020866      27.91506666 
S      30.35781431      23.52001046      16.01792373 
S      18.87598464      25.73020986      34.57996948 
S      35.21082707      24.88076580      27.36644571 
S      19.84371881      20.73003147      34.63985311 
S      32.18284853      26.04830294      30.87094815 
S      23.60630816      19.76763558      12.61724039 
S      17.20484594      33.44318362      22.19986337 
S      15.67602950      26.16325225      30.65507990 
S      11.91080041      27.02177605      23.07582633 
S      24.40799199      13.25073044      17.25605487 
S      13.14623245      24.78744448      19.23319483 
S      21.57794046      13.55516347      29.23185429 
S      16.73767878      17.43294465      32.76653663 
S      15.76479517      15.78559540      21.27563706 
S      14.76474382      15.12855690      26.06225464 
S      25.23270565      32.78419134      16.20073451 
S      29.84176207      13.60175634      25.95622749 
S      20.07129215      13.82879160      19.24748711 
S      27.19402837      33.63913355      25.69870138 
S      12.78557415      21.67582821      27.65974094 
C      21.18616676      14.13794334      33.19030095 
C      30.37349713      32.88784611      19.85596547 
C      23.29954508      24.21580166      36.84829541 
C      23.53083185      18.96644666      37.03243198 
C      11.02809810      19.15119228      24.95732765 
C      32.48303862      15.51597331      29.29384733 
C      31.72835863      13.02278513      21.76295302 
C      31.64917368      19.94432870      15.93054650 
C      28.06383354      23.11932095      34.76446418 
C      22.70333997      29.39520919      35.70901230 
C      13.29720362      31.70617131      24.35847070 
C      16.99237866      16.75176005      16.14774238 
C      33.18817935      24.17596312      18.39160370 
C      26.56564436      32.48817633      34.02953488 
C      22.43475521      34.13920788      31.99219518 
C      16.89157142      33.18547351      17.52213015 
C      10.56075216      22.27148548      21.22527682 
C      26.66361160      12.19213601      27.21908267 
C      34.84246342      28.36266202      28.88674887 
C      28.22414236      27.64511311      34.65607690 
C      22.37146239      24.51374861      10.50805433 
C      26.84557788      26.40668784      11.51373751 
C      17.77859935      33.29850893      31.32285144 
C      29.49183875      18.51313813      34.09317179 
C      19.80099784      35.20344807      24.43345155 
C      32.50014807      32.55596274      28.96709254 
C      28.63845048      30.18014430      14.66050502 
C      34.45985789      16.65192399      25.32882418 
C      35.64267143      21.98469590      21.98854734 
C      17.56819663      12.95656724      25.16770671 
C      21.79760056      35.13838471      19.78307184 
C      12.44078174      17.95485154      18.68223205 
C      18.79719706      29.79659022      35.38308615 
C      33.54291187      31.44899393      23.95929423 
C      35.71884740      28.66850419      22.29483262 
C      32.11928747      30.79044213      33.27737764 
C      21.53121454      12.26503378      23.00415462 
C      33.23474464      17.88585138      20.16419440 
C      27.99467296      12.78775302      18.05712150 
C      14.18675104      29.60954512      30.29197468 
C      32.98322524      20.58629255      31.33622964 
C      19.38758252      25.77927506      12.98514186 
C      15.92937036      28.20805317      15.97714369 
C      26.28089893      11.44009347      22.50777517 
C      15.17894372      33.92864063      26.88634327 
C      15.37651401      20.75026002      32.77489954 
C      21.87370888      15.60184297      14.31888069 
C      23.11931320      29.36443240      12.42603015 
C      20.11713789      20.75762450      13.00368903 
C      21.53911682      32.95633074      15.11434068 
C      23.98582999      35.46025422      26.99418542 
C      11.98316905      17.21269455      30.36958912 
C      25.89020819      34.55592672      22.22769409 
C      28.77251462      20.93776487      11.28093344 
C      16.35789249      21.72034776      15.40313346 
C      27.90734100      16.37331446      14.39367942 
C      16.48955694      12.34122158      30.30146822 
C      29.81511568      13.81235639      31.31212251 
C      27.89480059      35.59010666      30.81356165 
C      32.50241669      29.41884385      18.22350216 
C      25.74646535      14.89095839      34.09765953 
C      12.87247546      30.18193785      20.17792411 
C      11.96672617      26.97221846      26.78521801 
C      36.06226189      19.68863738      27.10448896 
C      30.66834840      24.66543201      14.62057482 
C      19.03841707      24.50300432      35.93388328 
C      36.56319971      24.79848400      26.12428646 
C      19.79510354      19.38022608      35.87963509 
C      32.23802649      25.35235703      32.56723326 
C      24.77080405      19.01438904      11.41890157 
C      15.72267363      33.60882625      21.13112248 
C      15.26097389      25.32317411      32.22733858 
C      10.78550156      27.43685751      21.68529316 
C      22.91860940      12.56756292      16.43030659 
C      12.96384027      24.40872087      17.44758383 
C      21.61782630      12.05224210      28.18010183 
C      16.73254384      15.72519248      33.43567465 
C      13.97503681      15.38663115      21.20367375 
C      12.98362968      15.09753362      26.48725990 
C      26.88790204      33.47193669      15.80671719 
C      31.61291866      13.44663829      25.50254235 
C      18.29382601      13.53645085      18.88949181 
C      28.88737321      34.34296636      25.70623570 
C      12.17137313      22.57789154      29.13630049 
H      22.21408888      14.07983480      32.81662161 
H      21.10248970      13.60981669      34.14714374 
H      20.50104733      13.69835615      32.45374143 
H      30.83648124      33.24715714      18.93006461 
H      30.42470791      33.66783520      20.62500404 
H      30.89100394      31.99219510      20.21714253 
H      24.17664286      24.76681422      37.20876531 
H      22.65655381      24.89809548      36.27992858 
H      22.75116010      23.80138962      37.70134486 
H      23.33431842      18.19045074      37.78068397 
H      24.29552710      19.66120412      37.39946018 
H      22.61801530      19.52939003      36.81182542 
H      11.17961760      19.10576182      26.04322554 
H      11.04160020      20.19697017      24.63232595 
H      10.07068579      18.68983277      24.69037993 
H      33.24336685      15.33938178      28.52359843 
H      32.84249342      15.12913955      30.25467962 
H      31.55334317      15.00942395      29.01210451 
H      30.78640095      12.56797868      22.09102923 
H      32.08264345      12.53828951      20.84671372 
H      32.48463843      12.90832960      22.54869319 
H      31.58658361      21.03468956      15.82929216 
H      32.22521779      19.69055408      16.82954760 
H      32.12203225      19.50591534      15.04491181 
H      27.77647567      22.47982732      35.60683717 
H      29.03201050      23.59586688      34.95958691 
H      27.30193070      23.89328272      34.60350355 
H      22.00499037      30.04258704      35.16100360 
H      22.27901664      29.10747566      36.67782526 
H      23.64737350      29.93166779      35.86366785 
H      12.60078121      32.22779079      25.02472365 
H      14.26578178      32.21750286      24.34260213 
H      12.88051445      31.67170555      23.34448458 
H      17.22155866      17.17992196      15.16477802 
H      17.89711632      16.29066501      16.55875930 
H      16.19426292      16.00676688      16.05343680 
H      32.47263430      24.98203011      18.18603242 
H      34.17208049      24.60491907      18.61509765 
H      33.24952546      23.50685212      17.52554884 
H      26.89633476      33.18994980      33.25713584 
H      25.49656764      32.63057048      34.23021973 
H      27.14611700      32.62855268      34.94871928 
H      21.59633943      34.11496235      31.28778683 
H      22.19886891      34.79907215      32.83508253 
H      23.33914060      34.49000413      31.47828798 
H      15.95486709      33.41592114      18.04309006 
H      17.72109701      33.72324800      17.99415607 
H      16.80297468      33.47426181      16.46870564 
H      11.17733077      22.78713237      20.48154867 
H      10.47547914      21.20967962      20.96391534 
H       9.56724518      22.73153086      21.27436280 
H      27.47611440      12.86972784      27.49606686 
H      26.44612016      11.53234380      28.06786679 
H      26.96963354      11.59408981      26.35232165 
H      35.83567459      28.82418457      28.92805506 
H      34.31474086      28.52745570      29.83490311 
H      34.94317319      27.28587160      28.71344707 
H      28.21559363      27.02064348      35.55795000 
H      29.01762111      28.39875121      34.73000428 
H      27.25871118      28.14703622      34.54349348 
H      22.28079787      25.57020975      10.22824128 
H      22.60596239      23.91914055       9.61807995 
H      21.42879032      24.17124817      10.94566137 
H      25.96755116      25.82671630      11.20995955 
H      26.56572837      27.45690118      11.66238965 
H      27.63586413      26.32720436      10.75832158 
H      18.16316527      33.14209961      32.33831813 
H      17.25522496      34.25942645      31.26057508 
H      17.09910151      32.48337476      31.05397350 
H      30.32610420      17.93160950      34.50210133 
H      29.84800269      19.48492235      33.73534611 
H      28.73425025      18.67117063      34.86986985 
H      18.89122344      34.62116160      24.26147783 
H      19.67245430      35.82195573      25.32918453 
H      19.99080143      35.84411668      23.56338046 
H      32.34377047      32.16025785      29.97566399 
H      33.29510588      31.98983887      28.46548235 
H      32.75513346      33.62120600      29.00705104 
H      29.38689006      30.97955577      14.61571684 
H      28.78143962      29.49209449      13.81847035 
H      27.62369248      30.59904557      14.61581465 
H      34.17919150      15.59779523      25.44245122 
H      35.53323437      16.72600167      25.12084916 
H      34.20829589      17.20037355      26.24276813 
H      34.95941480      21.67752244      21.19027547 
H      35.90761626      23.04041319      21.85268255 
H      36.54812780      21.36783675      21.98019326 
H      17.10855020      12.51752636      26.06168656 
H      16.88458999      13.69416425      24.73708072 
H      17.77931790      12.17246191      24.43059539 
H      22.70944929      35.18811121      19.17558470 
H      21.17007467      36.01488745      19.58703121 
H      22.07049240      35.08894185      20.84206183 
H      12.54175525      18.23387064      17.62638225 
H      13.24189762      17.25316296      18.94001034 
H      11.46108020      17.49548513      18.85172688 
H      18.73406473      30.67279898      36.03807077 
H      17.93632189      29.13860337      35.55071906 
H      19.71749894      29.23605747      35.57773942 
H      34.06188401      30.55049953      24.32008761 
H      34.10409895      31.89571248      23.12986274 
H      33.46680234      32.17055930      24.78106725 
H      35.69742373      28.30912901      21.25972453 
H      35.00036952      29.48673533      22.40243505 
H      36.72533821      29.02024852      22.55002694 
H      31.83725519      30.05448180      34.03537973 
H      33.18221047      30.68359327      33.03175526 
H      31.92368334      31.80247610      33.64987097 
H      21.29674306      11.69462878      23.91052050 
H      20.68750368      12.91864182      22.74736135 
H      21.74176036      11.58552563      22.16995365 
H      33.32421404      17.25005203      19.27530055 
H      34.20508905      18.33850874      20.40201912 
H      32.89579910      17.28004157      21.00923276 
H      27.23268290      12.59001725      17.29432443 
H      28.83898345      12.09961409      17.93455714 
H      27.56312663      12.67421495      19.05705550 
H      13.27474368      30.21599714      30.26301942 
H      13.97377042      28.57841155      29.99156649 
H      14.60445797      29.61109478      31.30602168 
H      32.78964122      19.87576589      32.14883465 
H      33.13593513      20.04007552      30.40110362 
H      33.88538038      21.16734786      31.56347541 
H      19.55150403      24.69565640      12.97690904 
H      18.39402336      25.99612905      13.39749894 
H      19.46398867      26.18134985      11.96776164 
H      15.81845208      28.83303873      16.86776286 
H      16.22910287      28.83457611      15.12913656 
H      14.97291207      27.71784480      15.75759160 
H      26.90551726      10.55308583      22.66154811 
H      25.71141775      11.67364970      23.41334865 
H      25.58445321      11.26721106      21.67842536 
H      14.46701804      34.03741051      26.05961282 
H      14.85282536      33.12182227      27.55170279 
H      15.24367832      34.87300862      27.43870461 
H      15.13858419      21.49048795      33.54822545 
H      14.61460092      19.96154072      32.76008726 
H      16.35435646      20.30319795      32.97986779 
H      22.05051601      16.15752945      13.39026720 
H      22.82882928      15.19644602      14.68270508 
H      21.16673359      14.78577392      14.12753146 
H      22.30280171      29.69997121      13.07411229 
H      23.32432165      30.11902659      11.65852491 
H      22.83950456      28.41563512      11.95202600 
H      19.09519791      20.38062922      12.88047913 
H      20.49494748      21.13605141      12.04633700 
H      20.77141803      19.95158899      13.34975344 
H      22.53102147      33.06094855      14.65777556 
H      20.79375993      33.50708498      14.52923500 
H      21.56232804      33.33256887      16.14209841 
H      24.00656740      36.38835821      27.57647265 
H      24.95357193      35.28991708      26.50913767 
H      23.18847542      35.49924591      26.24055573 
H      12.01163802      16.24855298      30.89009356 
H      11.91886195      18.02584760      31.09800694 
H      11.11823528      17.24639504      29.69709000 
H      25.99131270      35.13304127      21.30121506 
H      25.78374121      35.22631673      23.08851789 
H      26.76822199      33.91279431      22.37054820 
H      29.71537924      21.42150531      11.55093238 
H      28.93816581      19.86769362      11.11044513 
H      28.36156410      21.39972978      10.37593995 
H      15.45877951      21.09878664      15.47690089 
H      16.34206588      22.29685688      14.47017939 
H      17.25361418      21.08806243      15.42693379 
H      28.34205240      16.03927773      15.34129293 
H      28.03086267      15.59736375      13.62932348 
H      28.39224662      17.30452698      14.07298117 
H      15.40504868      12.31123692      30.45698948 
H      16.75577348      11.74780061      29.42242530 
H      17.00299046      11.94810430      31.18647329 
H      30.81460209      13.61784600      30.90622207 
H      29.82617226      14.74188089      31.89209398 
H      29.51456445      12.97419633      31.95027531 
H      27.97523327      36.02620166      29.81394657 
H      27.10398754      36.09638340      31.37899104 
H      28.84996846      35.68869457      31.34180754 
H      32.62454297      28.90011528      17.26556545 
H      31.50850888      29.88041950      18.25626000 
H      33.27595811      30.18901250      18.32624975 
H      26.51264356      15.67036376      34.02409834 
H      25.00756659      15.16739783      34.86032679 
H      26.20742484      13.92915322      34.34929787 
H      12.78835026      29.79764419      21.19970121 
H      13.09827535      31.25491615      20.20829023 
H      11.93388417      30.02340195      19.63554822 
H      12.22302072      27.48689174      25.85521788 
H      11.05785926      26.37983405      26.62822127 
H      11.79216170      27.71464278      27.57298900 
H      36.10102623      19.99849065      26.05442856 
H      36.91753560      20.09598328      27.65524116 
H      36.07282021      18.59424962      27.16917917 
H      29.98429936      25.51915619      14.63593644 
H      31.70212972      25.02102005      14.71135604 
H      30.54448403      24.12270139      13.67589367 
H      19.88730588      23.82978228      35.76547484 
H      19.16408294      25.04506249      36.87808487 
H      18.11207291      23.91706145      35.96092027 
H      36.76809275      25.82168294      25.78500933 
H      37.45049211      24.38048882      26.61321051 
H      36.27627782      24.17771574      25.26936947 
H      19.86144512      19.82075759      36.88113255 
H      18.83220829      18.86818339      35.76282968 
H      20.61009398      18.66019624      35.72282172 
H      32.30700218      24.26115549      32.46883502 
H      33.12851522      25.74742127      33.06920525 
H      31.33337653      25.61812939      33.12564902 
H      25.73989512      19.52353544      11.44207401 
H      24.90112010      17.96546278      11.71167739 
H      24.33442572      19.07194141      10.41553039 
H      14.84366461      33.53351428      21.78264827 
H      15.74020111      34.59248628      20.64847085 
H      15.69241776      32.81471222      20.37802171 
H      15.19414873      26.08470929      33.01307791 
H      14.29194398      24.82692592      32.09747662 
H      16.02623499      24.58105785      32.48747330 
H      11.14211924      27.00782902      20.74205315 
H       9.78696581      27.05391707      21.92385060 
H      10.74797874      28.52938985      21.60450406 
H      22.41405882      11.91952578      17.15639266 
H      22.23103015      13.35949384      16.11702924 
H      23.24267945      11.98071884      15.56336380 
H      12.72863955      23.34029026      17.36878677 
H      12.13700084      25.00494906      17.04635267 
H      13.89067847      24.61267852      16.90142226 
H      22.64589563      11.94336884      27.81141052 
H      21.34394629      11.19277499      28.80248228 
H      20.92665271      12.14960657      27.33559466 
H      16.72550895      14.98560483      32.62864359 
H      17.64518576      15.61058010      34.03314330 
H      15.84869536      15.60045153      34.07134045 
H      13.35588388      16.29190925      21.26121677 
H      13.76316523      14.83854784      20.27896406 
H      13.75517267      14.74639330      22.06678746 
H      12.67706739      14.05006661      26.58857833 
H      12.79872655      15.64296691      27.41850713 
H      12.44446864      15.57421301      25.65916690 
H      27.66546928      32.70314085      15.86244069 
H      26.85274328      33.91080799      14.80327979 
H      27.10014779      34.24968465      16.54988066 
H      31.88111943      14.14205817      24.69950583 
H      32.19789111      13.67505604      26.40156578 
H      31.80456134      12.41381391      25.19037479 
H      18.21973108      13.04950751      17.91004104 
H      17.88945517      12.87238240      19.66225067 
H      17.72231450      14.47174552      18.88731237 
H      28.98169073      35.01549448      24.84547428 
H      29.02700691      34.90681139      26.63638893 
H      29.64869188      33.55933895      25.64588062 
H      12.14442033      23.64227261      28.86844870 
H      11.16345241      22.22079149      29.37427792 
H      12.83846650      22.42955269      29.99278948 
