699
Properties=species:S:1:pos:R:3 i=74 optimized=T E=-11392.3422648524 pbc="F F F" jobid=279_84-Ag-59_9-000005-PBE
Ag      33.10451085      25.39751068      26.02055363 
Ag      31.97703102      29.30662099      21.70808857 
Ag      34.39749698      28.09229930      25.55640536 
Au      29.92663205      15.06425517      19.69953261 
Ag      33.66927519      19.49706084      23.74520607 
Ag      26.96161392      23.41731644      13.31331922 
Ag      18.22202044      33.10142136      28.17856022 
Ag      28.44154700      30.56088510      18.19702579 
Ag      24.90520043      21.23519703      23.25517136 
Ag      26.24522282      23.24409005      24.95033056 
Ag      28.15905594      25.06353210      23.66171230 
Ag      23.71030870      21.61393610      28.99821737 
Ag      23.32292180      27.89290930      26.97574086 
Ag      26.87957219      23.04952971      21.99905488 
Au      22.30109829      19.59204873      27.35114322 
Au      27.13581262      21.11642949      26.75655199 
Ag      22.00966876      21.55067761      22.71453122 
Ag      21.03050523      23.61106041      20.83755736 
Ag      27.62465575      25.28409391      26.61457728 
Au      19.90761661      24.06090522      26.70678598 
Ag      25.47979730      21.04187045      20.34897807 
Ag      24.22417199      25.72726632      28.80445154 
Ag      23.84930297      27.69774296      24.08078676 
Ag      26.13454868      27.58024172      27.62004444 
Ag      20.82143806      21.89416967      28.43116123 
Ag      22.81992316      23.72181957      27.20193942 
Ag      21.41712547      21.72842837      25.59686101 
Ag      19.41826393      19.88530793      26.84837164 
Au      25.78019281      19.11753562      25.10087165 
Ag      25.14535446      23.57732851      30.70232530 
Au      23.03428605      25.39152083      19.55600952 
Ag      21.00161765      27.91846627      23.51056694 
Au      26.65830658      27.33923989      24.77672957 
Au      22.58895203      21.37229946      19.82482581 
Ag      21.92200254      25.85216716      25.37335581 
Ag      27.12036762      25.45775014      29.48500140 
Ag      20.08275434      19.76064006      24.00316449 
Ag      25.92301132      25.10086211      20.15787077 
Au      23.50208728      19.23932031      21.66016981 
Ag      22.25266908      23.91582530      30.04084922 
Ag      20.92956834      17.54831929      25.75964986 
Ag      21.57652259      27.66014628      20.60503746 
Ag      24.41932910      27.41653717      21.22808491 
Au      24.56437587      23.13283759      18.51726425 
Au      28.53411199      23.14512217      28.49762812 
Ag      18.56310774      22.02498016      25.08921022 
Ag      26.62465853      21.23596548      29.62990247 
Ag      22.38635528      30.04403768      25.11562557 
Ag      27.24892834      27.11414654      21.81249160 
Ag      21.69072215      19.74691691      30.25535617 
Ag      18.41683526      26.38664079      27.70884089 
Au      23.09036704      21.75777146      31.84492581 
Ag      21.61023962      23.43472992      17.91027830 
Ag      16.98537190      24.33904191      26.16471412 
Ag      27.46120993      22.77821862      19.06657265 
Ag      23.77172231      17.20885545      26.29283005 
Ag      23.15293425      17.50679746      29.19557307 
Ag      25.19819942      29.74564673      25.73305569 
Ag      21.59321440      17.32521961      22.90611104 
Ag      28.67229608      18.75705298      25.71190810 
Ag      22.88267169      29.78437126      22.21420336 
Au      25.35069646      25.33652618      23.07136590 
Ag      20.10408081      25.67012596      18.94186313 
Ag      29.60621446      27.14612540      25.39721631 
Au      19.34502648      24.28808813      29.56347864 
Au      17.88838816      22.24051109      27.92284745 
Au      19.93340105      28.30844927      29.33166362 
Ag      23.67581355      25.82609300      31.67827895 
Ag      20.91665270      26.32229358      31.14521772 
Ag      26.37331878      18.99864464      22.16688888 
Au      24.58108080      19.48106234      30.83759438 
Ag      20.30039051      17.76446769      28.65546999 
Ag      28.83881156      24.84387605      20.73950066 
Au      19.52653912      30.16633944      24.52534264 
Au      25.76313568      29.50916622      22.81375487 
Ag      24.96663228      27.15539953      18.26200622 
Au      28.38773409      20.73559118      20.90372024 
Ag      29.03828034      27.34532929      28.26694995 
Ag      29.93248070      20.84798284      27.33709338 
Au      18.16121475      23.95679348      20.25954106 
Ag      17.68635496      19.71029063      20.58652932 
Ag      25.57274687      27.68435052      30.49017174 
Ag      28.02598541      23.26605332      31.31241037 
Au      21.89368415      30.22790281      28.09125957 
Ag      21.75559492      24.07063119      32.91899737 
Au      18.71250536      27.96386385      20.07173344 
Au      16.27644216      22.01413007      21.57447223 
Ag      30.46449923      25.01557792      27.16158520 
Au      23.38526459      23.52063882      24.34403135 
Ag      20.02285390      30.00566297      21.60992599 
Ag      16.54001298      20.12722966      26.36683844 
Ag      26.63158649      16.93827081      26.90434039 
Ag      29.95831820      25.12852226      29.98195154 
Au      17.53403217      28.47211048      25.85714394 
Au      16.17181911      26.39014543      24.24911558 
Au      28.59077245      29.10466641      23.44975470 
Ag      27.83924783      26.89678094      18.97205312 
Au      24.07819927      19.06499166      18.65984765 
Au      27.26933990      16.78226755      24.00742629 
Ag      26.93542153      18.76371284      19.24681151 
Ag      25.89154043      21.36355346      32.54898654 
Ag      12.63306959      18.86837270      21.95861638 
Au      23.03840345      21.14805972      16.89128456 
Ag      26.33785536      29.14570785      19.86587367 
Ag      19.90034844      19.55360483      32.41767842 
Au      25.96550137      17.17620764      29.69003039 
Au      29.19874755      18.69134358      22.81216964 
Au      27.51658456      29.64563074      29.21532026 
Ag      15.07791606      22.41207878      27.35684845 
Au      26.05641776      20.77794802      17.34784482 
Ag      24.50902095      23.77293142      33.51355903 
Ag      23.62837775      25.18902169      16.55636532 
Ag      17.47863584      17.98651176      28.09491560 
Au      19.08131048      30.39856952      27.49216522 
Au      23.50641939      29.45969121      19.34602253 
Au      22.42337150      25.62863211      22.47156253 
Au      16.06151513      20.16672169      29.21575636 
Ag      27.36324375      19.05763666      31.44030584 
Ag      29.19472069      28.87043003      20.59404076 
Ag      16.44154251      24.52644588      29.01196578 
Au      31.90136005      22.72408916      26.10127811 
Au      16.62080657      21.78727023      18.73005815 
Ag      24.87789908      31.57704471      20.80401148 
Au      21.96083346      31.71016677      20.30538739 
Au      20.72992963      25.47031511      16.11523074 
Au      24.30433337      31.81903394      23.91972703 
Ag      20.63847813      29.68217316      18.73430204 
Ag      23.02088373      15.10095872      21.60243094 
Au      30.28457467      22.48579395      19.68271555 
Ag      25.06691100      22.89665172      15.59144407 
Ag      18.71640077      23.77972024      17.27507170 
Ag      28.93500431      20.49302643      18.05818344 
Au      17.53428747      22.59569019      30.99407168 
Au      17.11565643      28.75001738      28.76262080 
Au      27.79296506      16.71233246      21.10630465 
Au      15.54061774      26.91572554      27.02735106 
Ag      18.85683671      15.75849192      26.98739624 
Ag      19.50489375      15.52432036      24.01441897 
Ag      17.97094106      26.74494446      30.72892944 
Au      20.11487871      15.50800555      21.23740776 
Ag      27.28943359      31.47341937      24.33189066 
Ag      24.57724784      15.09068801      28.33019448 
Au      23.98586402      23.32451050      21.43999941 
Ag      20.13391300      21.31492522      16.33017727 
Au      27.85917691      22.58775085      16.08501220 
Ag      31.31425759      20.35526824      21.70572475 
Au      26.78303179      31.69932394      27.45000200 
Au      25.38792574      14.98520274      25.19382694 
Au      28.56402563      16.14176902      28.86594072 
Ag      25.89864238      14.83813244      22.26501683 
Au      32.52439291      22.51862715      23.31390545 
Au      25.57330569      30.35481303      31.36857223 
Ag      22.82974637      30.85532703      30.76637686 
Ag      24.13174007      16.89737574      31.88921193 
Au      31.22785455      17.86081400      24.81078912 
Ag      17.01954027      26.13654920      18.53614235 
Au      31.59007565      22.67700439      28.81143440 
Au      29.28370225      15.97304139      26.00533827 
Ag      15.54692293      29.25825351      23.89024749 
Ag      16.07392441      29.01030317      20.96548190 
Au      17.08524174      31.28306015      25.54595953 
Au      29.40357475      24.79618163      17.93162036 
Au      30.58218390      17.98414878      27.66297737 
Ag      18.49522313      17.54059795      30.83885126 
Ag      23.69954946      19.64356228      33.55405022 
Au      18.08369781      30.70263025      19.59545613 
Ag      17.49681489      31.05231009      22.57508184 
Ag      14.16417953      27.11084673      22.32387596 
Ag      32.50495271      19.88478515      26.54051423 
Ag      24.76290576      25.55050068      25.98065914 
Ag      32.85977739      26.72954244      23.25640501 
Au      24.82655507      19.99354670      14.94874513 
Ag      19.95256539      31.03699972      30.16607545 
Ag      31.73392939      27.67144442      27.24029086 
Au      23.53637269      28.53188453      32.50053811 
Ag      29.78096318      15.87544283      23.08237721 
Ag      22.42587485      17.01159907      34.36798192 
Au      13.27396861      19.56293403      28.44157609 
Au      24.15061707      27.90422989      15.62795179 
Ag      15.51608862      17.58349593      30.56518030 
Au      25.65676995      25.68261362      14.67492119 
Au      28.93728591      30.53420044      32.18703444 
Au      22.63365901      30.11002847      16.72866364 
Au      21.88509374      21.76295107      34.91173437 
Ag      31.12855115      28.19556305      30.31217928 
Ag      19.82074773      15.05760942      29.70778830 
Au      22.48367673      25.23442559      12.92513447 
Au      16.32178868      14.91129308      28.18584021 
Au      25.64060424      33.67839365      29.36689237 
Ag      26.56305305      14.66678975      31.07744927 
Au      28.56809297      13.27388203      23.81589164 
Au      16.21017414      17.24192585      19.24680500 
Ag      16.05897519      17.48358978      23.04905522 
Au      20.71164818      15.40626438      17.74294532 
Ag      11.96848019      24.49179174      23.12039791 
Ag      14.69245756      29.98338173      26.82583860 
Ag      24.28917558      21.41081474      26.14572329 
Ag      14.88049138      19.99920744      20.15501147 
Au      25.39490815      31.08312663      18.03617120 
Au      28.50927437      20.23904220      14.42292192 
Au      30.14100809      26.92083480      22.48780897 
Au      30.99258312      24.82285798      24.28107806 
Au      31.73575316      24.74052592      21.49963961 
Ag      20.50162781      23.82673339      23.81396091 
Ag      25.26947865      14.76362764      16.23912605 
Ag      30.71551495      29.81476671      25.25919385 
Ag      25.66886907      23.41940296      27.85230777 
Ag      27.01116825      27.63392805      16.31911940 
Ag      20.78679993      31.38447120      33.07649712 
Au      17.69284321      24.04693154      23.25241727 
Ag      22.91484586      19.38044256      24.50390302 
Ag      27.74139856      20.96222058      23.84801209 
Ag      19.59297556      25.89709591      21.91817828 
Ag      25.02920492      30.92807345      14.99092445 
Ag      25.13752806      19.29032305      27.92574799 
Ag      19.02902845      26.12016005      24.82946551 
Au      20.51464055      28.09874531      26.40572385 
Ag      21.36695956      26.01483166      28.25529010 
Au      29.03339458      22.99873118      25.51935120 
Ag      19.14038426      21.81937515      22.12138897 
Au      24.44764950      17.08016204      23.43193406 
Au      22.81379692      28.09838288      29.83872365 
Au      20.63642028      19.59726510      21.10798036 
Ag      20.32143049      22.14631448      31.28678158 
Ag      24.71676819      30.00455186      28.67263174 
Au      18.03315029      28.26684450      22.92079728 
Ag      28.03016616      18.93989370      28.60078780 
Ag      18.83958612      20.16228712      29.74567359 
Ag      29.72422203      22.71827127      22.62835065 
Au      19.60624879      21.68540611      19.15657752 
Ag      18.10089005      17.87471940      25.18247714 
Au      15.67024153      22.21984785      24.48918701 
Au      16.69639736      26.19898478      21.37783330 
Ag      26.53475256      24.88989116      17.27782526 
Ag      28.04958769      29.40404548      26.31216284 
Ag      17.20785033      20.01328260      23.47186534 
Au      18.80088513      17.74913114      22.39413795 
Ag      30.61450983      20.65026366      24.47494870 
Ag      22.12194451      27.44470173      17.70342280 
Ag      21.13708706      19.41409546      18.22661125 
Au      22.14406907      17.28011115      19.89058510 
Ag      21.78703500      15.52925243      27.50083846 
Au      19.00366332      24.51042332      32.41746059 
Au      26.40777679      25.51634032      32.38577555 
Ag      14.83711046      24.30798012      22.68408733 
Ag      29.47941275      20.79054793      30.24149335 
Ag      23.77220689      32.02119296      26.77314000 
Ag      22.40342440      15.17144977      24.67319753 
Ag      24.94292923      16.98908319      20.51890226 
Au      28.35344010      27.75372525      31.08467808 
Au      19.28107850      17.57103334      19.45657147 
Au      27.74306518      31.10767117      21.52467097 
Au      15.29667345      24.17155536      19.85033004 
Au      21.27357200      17.10611474      31.36032266 
Au      21.19496492      32.06240949      23.12227167 
Au      14.16669481      24.46968232      25.40978550 
Au      22.30220982      23.11984527      14.95950935 
Ag      30.69572218      26.72398078      19.55042361 
Au      18.30835713      19.61934989      17.71023663 
Ag      22.82745936      18.28081202      16.21592001 
Ag      15.40522624      17.52322970      26.03403271 
Ag      30.21338653      29.94905735      28.09462325 
Ag      29.85526364      18.24029286      19.96638546 
Ag      13.62741673      21.68381263      22.48523939 
Ag      30.16354569      17.79684029      30.83282132 
Au      26.68693780      15.94730876      18.59481656 
Au      20.75974157      32.25352788      26.32649636 
Ag      19.19933457      27.79645507      17.19171283 
Au      25.76501564      17.90532948      16.67132409 
Au      14.50059211      19.62304625      24.37591821 
Ag      19.11938931      33.18077216      20.94743736 
Ag      24.13645509      21.96465210      12.88558816 
Au      34.56521824      22.56178063      27.50473117 
Ag      29.13317002      32.57032085      29.05547471 
Ag      19.37719691      31.29313844      16.61017015 
Ag      23.61972687      15.21582203      18.71719627 
Ag      13.93557281      27.10775705      19.38364632 
Ag      21.25184301      26.88491870      34.07364561 
Au      19.62053668      28.67925474      32.09530981 
S      20.57696075      15.82647229      33.40108398 
S      28.56511283      32.49707225      19.70017999 
S      23.89457137      22.74697623      35.70463927 
S      24.18011637      18.20410257      35.49576525 
S      12.56242228      18.10688251      24.25424111 
S      32.18783865      17.62467340      29.48772304 
S      31.49298283      15.08621841      21.45350326 
S      29.73636509      19.15204721      16.11853890 
S      28.17834989      21.84323130      33.37505462 
S      23.35251968      27.95240647      34.83983586 
S      13.40693416      30.11329129      24.75725861 
S      16.36033107      18.23992294      17.09530593 
S      32.66227485      23.19936573      19.84946180 
S      26.91221318      30.68718634      33.38867173 
S      22.87167037      32.48610270      32.64936169 
S      17.20866078      31.76290572      17.56610887 
S      11.24187042      22.20085386      22.78787785 
S      25.02861121      13.16875497      26.75096736 
S      33.77200044      29.06209408      27.65782201 
S      28.56532339      26.42289824      33.17191796 
S      24.04872308      24.05506807      11.60527476 
S      27.45803341      25.85406977      13.03493468 
S      19.00038038      33.29263249      30.46980169 
S      28.72934580      17.46858009      32.76288293 
S      21.25047032      33.98454820      24.69081518 
S      31.01366433      32.23151629      27.52636706 
S      29.00926144      29.08333737      16.34278694 
S      33.41118744      17.08374062      24.01163601 
S      34.80400312      21.62796724      23.45581145 
S      19.41393422      13.67685885      25.67563438 
S      20.87342994      33.66033500      19.31106419 
S      12.53188721      19.46096588      19.62954128 
S      18.74910039      30.25501430      33.72746085 
S      31.77509299      31.04141228      23.39129321 
S      35.24502344      27.26801766      23.46466408 
S      31.08811018      30.51466444      31.21925561 
S      23.05694612      13.21462181      23.21624370 
S      32.12981924      19.19590430      19.65037538 
S      28.61619178      14.64333616      17.77729593 
S      15.34422182      30.39077670      29.14268041 
S      31.53383121      21.97691982      31.11861069 
S      20.80326668      26.58013364      13.89843260 
S      17.01778313      27.06866134      16.22900414 
S      27.33936027      12.83252609      21.85848075 
S      16.77148810      33.57376071      26.27719465 
S      15.30503487      21.68426408      31.10741763 
S      21.03285457      16.63883423      15.74039741 
S      24.73113484      29.07235196      13.49581355 
S      20.08593616      22.32269674      14.06468470 
S      21.32626824      31.47455251      15.20240479 
S      23.59950755      34.03872214      28.24524989 
S      13.53279284      17.32890461      29.16589054 
S      24.36891356      33.59488807      22.21153998 
S      27.46120253      21.14857245      12.51105746 
S      16.38991272      23.06681090      16.64893706 
S      26.01119374      16.45007346      14.69642639 
S      17.46214750      14.35518696      30.17825444 
S      28.59608855      13.94720567      29.95672248 
S      27.63784783      33.65989410      30.63007443 
S      32.69666893      28.18913501      19.67112329 
S      24.88978746      14.73421981      32.81839905 
S      14.20402728      29.50668936      19.42670976 
S      13.34212734      25.84963674      27.28148965 
S      34.59180587      20.22632512      27.85683916 
S      30.19306368      23.48178663      16.00888351 
S      19.04476612      25.84966646      34.45581595 
S      35.18479653      24.82629524      27.22611211 
S      19.75781122      20.76275214      34.59261194 
S      32.19416918      25.99993135      30.58931905 
S      23.69880728      19.49474005      12.86933912 
S      17.07428745      33.45944472      22.24010963 
S      15.55098529      26.19331776      30.64221301 
S      11.78976708      26.90022062      22.95110571 
S      24.35872880      13.08329885      17.69752739 
S      13.08027346      24.85372177      19.09958701 
S      22.07301498      13.92658589      29.39827354 
S      16.80964342      17.63883552      32.64386545 
S      15.78984508      15.89207376      21.14926090 
S      15.10942125      15.07543127      26.16669153 
S      25.47869628      32.85600036      16.38348867 
S      29.75460851      13.55718475      25.83117052 
S      20.19565069      13.81642765      19.43968338 
S      26.94055047      33.49044483      25.71303774 
S      12.69780373      21.71972888      27.70043483 
C      21.16631063      14.09645065      33.23599736 
C      30.34307452      32.82037638      20.03152625 
C      23.36813670      24.10800770      36.82228717 
C      23.44153485      18.98727106      36.98587187 
C      11.16965655      19.01825487      25.03041302 
C      32.55234055      15.82547374      29.41745833 
C      31.82091100      13.29552407      21.69786213 
C      31.44744737      19.76553387      15.85963628 
C      28.00602605      22.84991278      34.90132776 
C      22.94932624      29.49507714      35.74805397 
C      13.34578205      31.89479687      24.31013240 
C      16.98776656      16.89878889      16.01016448 
C      33.15640030      24.21506933      18.40965938 
C      26.71607943      32.42725620      33.92586981 
C      22.43171959      34.14806376      32.00308896 
C      17.23341774      33.59862192      17.66414479 
C      10.50461984      22.28564082      21.10289743 
C      26.64174725      12.41506963      27.17042741 
C      34.84726293      28.23221879      28.89467633 
C      28.18129871      27.49228609      34.61167746 
C      23.10565903      23.63642115      10.08163322 
C      26.74541729      26.51297591      11.48169825 
C      17.44768714      33.05825476      31.43021753 
C      29.53209302      18.35033894      34.16087211 
C      19.73379766      34.99098179      24.49022166 
C      32.55158682      32.53391044      28.48353023 
C      28.92701311      30.07805914      14.79891824 
C      34.38651072      16.65307675      25.50849391 
C      35.49320286      21.59473719      21.75424230 
C      17.92125439      12.64260292      25.37964921 
C      21.77767488      35.14252922      19.90785236 
C      12.49180035      17.92029752      18.62906057 
C      18.98609823      29.57594325      35.41602138 
C      33.44741187      31.55399196      23.94965488 
C      35.60508397      28.72286638      22.40024586 
C      32.25367763      30.38456336      32.63940843 
C      21.59313593      12.18435883      22.80963010 
C      33.39195270      17.91803831      20.03241887 
C      28.18344532      12.87289920      18.00197539 
C      14.06362891      29.60389421      30.19484747 
C      32.97134932      20.86478016      31.35994561 
C      19.26564194      25.96727033      13.10669471 
C      15.89079636      28.51630851      16.17243327 
C      26.30457069      11.36732965      22.25313990 
C      15.12890999      33.78901422      27.07121160 
C      15.14278562      20.83330583      32.72033383 
C      21.71051477      15.44244722      14.52350664 
C      23.17849395      29.42189664      12.58536713 
C      20.35196266      20.97308176      12.85258155 
C      21.82113491      33.22283675      15.47995205 
C      23.98687845      35.42843741      27.11159465 
C      12.13585695      17.09623367      30.34165829 
C      25.93670285      34.53086926      22.35335709 
C      28.84170378      21.37882907      11.31574423 
C      16.42025810      21.88761828      15.24857738 
C      27.80217531      16.17328528      14.42317319 
C      17.53880619      12.51656622      30.11902116 
C      29.81313967      13.92373224      31.33403763 
C      28.14198723      35.43033440      30.62461247 
C      32.63118682      29.44760299      18.33145378 
C      25.92697894      15.10799031      34.29164474 
C      12.82182496      30.17626131      20.43753496 
C      12.07357051      27.01560063      26.66149170 
C      36.09283719      19.72713123      26.92076638 
C      30.41482211      24.64769536      14.61559748 
C      19.19761627      24.69495006      35.87657345 
C      36.47635315      24.68444302      25.92384070 
C      19.62131458      19.47641897      35.89642863 
C      32.35286772      25.72902261      32.39859763 
C      24.88366608      18.62799149      11.77482994 
C      15.69513932      33.57504789      21.03234692 
C      15.16613626      25.39731735      32.25061705 
C      10.69723361      27.11025818      21.48669523 
C      22.91095690      12.34332217      16.83924934 
C      12.98969738      24.54729379      17.29179343 
C      21.79403938      12.28936877      28.61057882 
C      16.74383909      15.98659798      33.43983936 
C      14.02975867      15.38808923      21.01774901 
C      13.35338258      14.74029319      26.57467883 
C      27.21960979      33.37495863      16.12477304 
C      31.54435165      13.43698275      25.44478643 
C      18.44096578      13.36505597      19.13569333 
C      28.51170471      34.42164975      25.88089192 
C      12.14527404      22.59612881      29.21476101 
H      22.23128161      14.05606013      32.98064943 
H      20.99475938      13.59428023      34.19539609 
H      20.58188042      13.60525906      32.44868171 
H      30.79242289      33.22033830      19.11511631 
H      30.41296329      33.56422284      20.83358159 
H      30.87229520      31.91295652      20.34348977 
H      24.27971478      24.59530942      37.18884848 
H      22.75330745      24.84862247      36.29867973 
H      22.81367522      23.68442697      37.66667275 
H      23.22176038      18.20828288      37.72412463 
H      24.18155216      19.68700051      37.39140502 
H      22.53077886      19.54580390      36.74490807 
H      11.37506134      19.11179241      26.10469707 
H      11.04609308      20.01227729      24.58599771 
H      10.26173917      18.42427114      24.87171884 
H      33.33706802      15.66756388      28.66806721 
H      32.91572163      15.50255203      30.39999286 
H      31.66080887      15.25226466      29.14131513 
H      30.90773883      12.75512113      21.97306575 
H      32.24465448      12.88018162      20.77719940 
H      32.55718988      13.21102387      22.50621475 
H      31.46067534      20.85569632      15.74790796 
H      32.02722686      19.47939607      16.74678698 
H      31.86166395      19.28719812      14.96533392 
H      27.53380873      22.24135393      35.68035641 
H      29.01086258      23.15099112      35.22023925 
H      27.40096781      23.74526327      34.71189157 
H      22.19686208      30.09616045      35.22146793 
H      22.58035742      29.22462937      36.74452342 
H      23.86976830      30.08327465      35.84329838 
H      12.70943510      32.42106559      25.03062642 
H      14.34564987      32.34275280      24.29580923 
H      12.89798054      31.97128436      23.31193127 
H      17.16319440      17.33829038      15.02085744 
H      17.92601547      16.47966716      16.39000946 
H      16.22070690      16.11965972      15.93830496 
H      32.31581704      24.82119636      18.04812969 
H      33.98597615      24.86624511      18.70742671 
H      33.47645073      23.52659392      17.61819691 
H      27.01183186      33.11642938      33.12767632 
H      25.65645373      32.57377044      34.16929545 
H      27.33627795      32.57953076      34.81668275 
H      21.49692766      34.12265680      31.43261882 
H      22.32334018      34.82462133      32.85860479 
H      23.24901893      34.48915447      31.35588833 
H      16.35296836      33.92631452      18.22774537 
H      18.14384422      33.96561306      18.15075957 
H      17.17589477      33.98876578      16.64138826 
H      11.11875391      22.89270459      20.42876792 
H      10.42847048      21.26768415      20.70291126 
H       9.50555804      22.72716976      21.19138029 
H      27.39382621      13.16870640      27.42110506 
H      26.48604150      11.76396480      28.03944444 
H      26.99048365      11.81990571      26.31789711 
H      35.81839531      28.73996415      28.89637991 
H      34.37140062      28.32921598      29.87792118 
H      34.98202250      27.16942951      28.66663871 
H      28.20923188      26.86256045      35.50895619 
H      28.94473877      28.27658081      34.67926250 
H      27.19547888      27.95717348      34.51289772 
H      22.90387027      24.55869136       9.52509798 
H      23.73208419      22.97041088       9.47657994 
H      22.16299738      23.13540590      10.32037585 
H      25.95495630      25.85791324      11.10091088 
H      26.33753052      27.51173269      11.68020682 
H      27.56367317      26.57730280      10.75393819 
H      17.71026220      32.80833905      32.46503280 
H      16.88942586      34.00124057      31.40868170 
H      16.83221910      32.25697153      31.00658046 
H      30.54955016      17.96933928      34.29823935 
H      29.54918762      19.43207699      33.98494959 
H      28.93889913      18.14436586      35.06008388 
H      18.83845505      34.37293486      24.37496208 
H      19.62575088      35.62830125      25.37592695 
H      19.86367776      35.61545967      23.59757703 
H      32.40721308      32.27547017      29.53796317 
H      33.35086098      31.91095729      28.06549317 
H      32.80823255      33.59539351      28.38821761 
H      29.70673791      30.84800471      14.82445292 
H      29.11221350      29.40051495      13.95668348 
H      27.94342752      30.54715260      14.66507291 
H      34.15634352      15.61384151      25.77191172 
H      35.45249907      16.74079423      25.26883367 
H      34.13841430      17.30583013      26.35322386 
H      34.74098956      21.28081127      21.02264363 
H      35.83172064      22.60787818      21.50750815 
H      36.34510026      20.90536479      21.74200076 
H      17.65810863      12.12700099      26.31093563 
H      17.06976902      13.25143600      25.05965200 
H      18.16492014      11.90320015      24.60788497 
H      22.65999472      35.27890068      19.27125752 
H      21.11614202      36.01139450      19.81690567 
H      22.10222704      35.01778335      20.94620188 
H      12.47373123      18.21987568      17.57437910 
H      13.38027237      17.30179010      18.80293926 
H      11.58400809      17.35546911      18.86637616 
H      18.76699118      30.37652142      36.13235865 
H      18.28151927      28.74749838      35.55143727 
H      20.00483766      29.20699884      35.57287389 
H      34.02646987      30.70696834      24.34072016 
H      33.98479768      32.01648021      23.11394284 
H      33.31551329      32.29115317      24.75105680 
H      35.67829935      28.37017278      21.36528387 
H      34.81551599      29.47935357      22.45749331 
H      36.55976517      29.15733961      22.71731993 
H      32.03686306      29.50453722      33.25221683 
H      33.26836811      30.30782907      32.23048042 
H      32.16992154      31.29187846      33.24796419 
H      21.47459206      11.44280826      23.60837241 
H      20.68699941      12.79891057      22.74539576 
H      21.76422669      11.67891137      21.85265169 
H      33.42461441      17.20246376      19.20269465 
H      34.36328692      18.41896221      20.12289473 
H      33.16982718      17.37801858      20.95725874 
H      27.37964982      12.62832634      17.29635286 
H      29.07598473      12.27766094      17.77751655 
H      27.84840581      12.67640850      19.02646014 
H      13.12033950      30.14312529      30.05334899 
H      13.94126176      28.54422441      29.94723218 
H      14.38772708      29.68940085      31.23882670 
H      32.85521556      20.39193748      32.34298971 
H      33.03016338      20.09116184      30.58822539 
H      33.88611919      21.46808713      31.34329583 
H      19.23070941      24.87141079      13.12064409 
H      18.42117513      26.37631328      13.67696220 
H      19.24036580      26.33621383      12.07507258 
H      15.97555291      29.14187776      17.06609615 
H      16.14221108      29.11722519      15.29084021 
H      14.85970040      28.15278748      16.08574033 
H      26.95404612      10.51013633      22.45954717 
H      25.63982423      11.56425526      23.10076869 
H      25.69633615      11.16537185      21.36272361 
H      14.36651623      33.85503715      26.28687413 
H      14.89547846      32.96058509      27.74860539 
H      15.15546959      34.73036732      27.63272807 
H      14.94961628      21.59622116      33.48393715 
H      14.29281498      20.14290422      32.66089932 
H      16.04542869      20.27042543      32.97491970 
H      21.87657306      15.99309243      13.58943333 
H      22.66296141      15.01567183      14.86249422 
H      20.97936641      14.64414813      14.35479085 
H      22.43791438      29.91422211      13.22519359 
H      23.42735171      30.07382036      11.73964298 
H      22.77748192      28.46922797      12.21878354 
H      19.36785377      20.57344525      12.57859216 
H      20.84199966      21.38068586      11.96045139 
H      20.97068454      20.16972848      13.26369215 
H      22.83975606      33.36403870      15.09931941 
H      21.12312237      33.85622262      14.91982829 
H      21.78411873      33.48019819      16.54445753 
H      24.06774883      36.35255761      27.69427257 
H      24.91856366      35.23563590      26.56607377 
H      23.15542808      35.50402020      26.39909400 
H      12.25086510      16.10686921      30.79997867 
H      12.13620235      17.86344602      31.12128385 
H      11.19357668      17.13661227      29.78365695 
H      25.99495381      35.20902810      21.49345005 
H      25.91917941      35.10438851      23.28692264 
H      26.80566119      33.86151724      22.35010242 
H      29.65858988      21.95903643      11.75474612 
H      29.21125037      20.39390307      11.00847633 
H      28.44162112      21.91040220      10.44436586 
H      15.50763672      21.28199570      15.27670646 
H      16.45332723      22.47722764      14.32466002 
H      17.30106008      21.23560059      15.29715127 
H      28.30565319      15.84421644      15.33845836 
H      27.90272888      15.40487731      13.64751863 
H      28.24394972      17.11652780      14.07771193 
H      16.51919967      12.11745880      30.16198375 
H      18.03660028      12.17095706      29.20775063 
H      18.10184024      12.17746949      30.99698685 
H      30.81594076      13.79508361      30.91107470 
H      29.77300709      14.84654156      31.92369555 
H      29.57715409      13.06514407      31.97352979 
H      28.20676069      35.83027487      29.60856729 
H      27.40741955      36.00552047      31.19969127 
H      29.12301207      35.49890252      31.10939969 
H      32.98566376      28.97267821      17.40893548 
H      31.61200618      29.81643593      18.16934465 
H      33.29485742      30.27976795      18.59091804 
H      26.66784665      15.88434648      34.06969619 
H      25.27389983      15.45157071      35.10252601 
H      26.43799074      14.18515680      34.58876455 
H      12.76770049      29.70508131      21.42586013 
H      12.99678734      31.25215227      20.55801910 
H      11.88079778      30.02257299      19.89774868 
H      12.36834888      27.48548544      25.71859504 
H      11.14423391      26.45351941      26.51032215 
H      11.92155353      27.78785845      27.42553261 
H      36.03996836      20.04347443      25.87321722 
H      36.96999924      20.17428711      27.40129642 
H      36.16810488      18.63466047      26.97436272 
H      29.69959058      25.47453479      14.66081691 
H      31.43660723      25.04223728      14.67414157 
H      30.28175785      24.10445486      13.67251035 
H      20.00121632      23.96422731      35.72523808 
H      19.39485885      25.28842165      36.77697443 
H      18.24609769      24.16173419      35.98659257 
H      36.70696913      25.69470711      25.56435800 
H      37.36824067      24.23435619      26.37347444 
H      36.13117772      24.06887848      25.08645358 
H      19.65894531      19.95302347      36.88218802 
H      18.64863235      18.98754715      35.76059917 
H      20.41563236      18.72457713      35.80976646 
H      32.50697838      24.65480550      32.56106007 
H      33.22206388      26.28848003      32.76322204 
H      31.44934176      26.04791331      32.93144823 
H      25.77704447      19.23802294      11.60445211 
H      25.16497198      17.67794011      12.24525383 
H      24.36678643      18.44144907      10.82540607 
H      14.75613012      33.51438531      21.59560410 
H      15.74644864      34.54432078      20.52335118 
H      15.73050499      32.76292424      20.29775587 
H      15.18764223      26.16266720      33.03456217 
H      14.16235699      24.96185239      32.18249013 
H      15.88993537      24.60778509      32.48576625 
H      11.06728726      26.55333312      20.61891788 
H       9.69441888      26.75716707      21.75256997 
H      10.65037836      28.17822641      21.24372732 
H      22.37902581      11.72120575      17.56868551 
H      22.22322983      13.10985010      16.46668073 
H      23.26636687      11.72111226      16.01060318 
H      12.79701544      23.47837411      17.14210468 
H      12.15972870      25.13678147      16.88620519 
H      13.92754203      24.81495583      16.79436889 
H      22.73555822      11.96470013      28.15054908 
H      21.49268920      11.57781828      29.38790370 
H      21.01923232      12.35736813      27.83739158 
H      16.63606781      15.19406668      32.69203202 
H      17.67770231      15.83555349      33.99433992 
H      15.89020523      15.97490970      34.12744514 
H      13.35630538      16.25376697      21.06198944 
H      13.87468083      14.83868213      20.08275033 
H      13.82246610      14.72767408      21.86852485 
H      13.23342524      13.66720103      26.76047831 
H      13.04301472      15.32053640      27.45051127 
H      12.75590957      15.04062971      25.70535328 
H      27.88668093      32.51898410      15.98261245 
H      27.24882238      34.01875332      15.23775854 
H      27.54160042      33.93773461      17.00837007 
H      31.85141647      14.19138778      24.71182751 
H      32.08443389      13.59640497      26.38596623 
H      31.75391597      12.43012713      25.06671870 
H      18.37975638      12.82951885      18.18162689 
H      18.12880458      12.70355054      19.95273629 
H      17.79598975      14.25022245      19.11957921 
H      28.56792802      35.12138970      25.03780219 
H      28.49356253      34.98425706      26.82229456 
H      29.38449323      33.76170205      25.87207203 
H      12.09476797      23.66332389      28.96365560 
H      11.15151592      22.22952001      29.49443321 
H      12.85272544      22.44694572      30.03843565 
