699
Properties=species:S:1:pos:R:3 i=82 optimized=T E=-10972.8225546113 pbc="F F F" jobid=279_84-Ag-20_1-000010-PBE
Au      33.19737313      25.46996571      26.02073750 
Au      32.27644600      29.47941790      21.24299783 
Au      34.53609611      28.21723572      25.45025103 
Au      29.95420404      14.95235920      19.70521922 
Au      34.10857177      19.60131143      23.70137864 
Au      27.51053107      23.55029235      12.93283301 
Au      18.17966343      33.28558792      28.14109448 
Au      28.58796446      30.70119647      18.00705518 
Au      24.93667613      21.21748668      23.22028747 
Au      26.31833778      23.24886077      24.89800708 
Au      28.21005098      25.09093995      23.58649996 
Ag      23.78010716      21.61109488      29.06303529 
Au      23.41924335      27.95667172      26.94768643 
Ag      26.91247502      23.05802273      21.96431743 
Au      22.38643357      19.53687769      27.34021031 
Au      27.26521656      21.14783484      26.72740758 
Ag      22.03683134      21.48812405      22.71462120 
Au      20.97984353      23.53919152      20.87698687 
Au      27.64482736      25.30148896      26.59633629 
Au      19.98976270      24.08859391      26.69830972 
Au      25.48051777      21.04424366      20.32936539 
Au      24.36845275      25.74229826      28.80988858 
Au      23.88436770      27.77400488      24.03568668 
Au      26.24308917      27.67938571      27.63310089 
Au      20.89112405      21.91504686      28.40390744 
Au      22.91233004      23.71439928      27.20713648 
Au      21.48827971      21.69168528      25.59289809 
Ag      19.47608985      19.78304561      26.91991603 
Au      25.86120189      19.10029535      25.09303589 
Ag      25.30296685      23.52701537      30.79172636 
Au      22.98175831      25.33677949      19.59454759 
Au      20.99477935      27.97183316      23.51277051 
Au      26.67955769      27.40905593      24.72134585 
Au      22.55996509      21.32791033      19.83626842 
Au      21.97158533      25.91769825      25.33056748 
Au      27.23422282      25.46941841      29.53729990 
Au      20.16344018      19.63634367      24.06978778 
Ag      25.90788678      25.06778885      20.15512176 
Ag      23.51953782      19.18250607      21.60934143 
Au      22.39288181      23.92634947      30.05687698 
Au      21.07075207      17.40661185      25.83955431 
Au      21.54288154      27.64928091      20.59742246 
Au      24.39458016      27.46201444      21.15754981 
Au      24.52442203      23.09452251      18.50215257 
Au      28.64440804      23.18995340      28.53029239 
Au      18.61768683      21.96266417      25.15255837 
Au      26.72515724      21.27627025      29.65772228 
Ag      22.44379798      30.10608125      25.11699171 
Au      27.21935942      27.17406282      21.78865425 
Au      21.75430976      19.73749107      30.15637711 
Au      18.49620447      26.42195828      27.71764573 
Ag      23.12151074      21.68476165      32.02855265 
Au      21.52328953      23.38205168      17.94432399 
Ag      17.07792605      24.35009783      26.20402714 
Au      27.46431745      22.79456912      19.03444556 
Ag      23.93310306      17.14230134      26.29969384 
Ag      23.25545502      17.45654064      29.18675006 
Ag      25.27944688      29.84902020      25.74188030 
Au      21.66571340      17.19377725      22.91544611 
Au      28.82307531      18.78586164      25.71745997 
Au      22.89793780      29.83005274      22.16452680 
Au      25.33817663      25.35316595      23.02563506 
Ag      20.02907426      25.62561624      18.96112224 
Au      29.52434811      27.14603926      25.42305248 
Au      19.38966161      24.39179352      29.59203318 
Au      17.97104124      22.23576895      27.97489022 
Au      20.05726528      28.36258844      29.34553443 
Au      23.83225463      25.81208159      31.68232536 
Ag      21.03840878      26.39298482      31.23103829 
Au      26.39261122      18.97317504      22.11905197 
Au      24.59430295      19.51279996      30.88784324 
Au      20.28935429      17.57614506      28.67737423 
Au      28.89622128      24.85591571      20.69133231 
Au      19.56263927      30.28864611      24.59442834 
Au      25.75219951      29.63205047      22.79348382 
Au      24.95672970      27.09205668      18.25124619 
Au      28.45492206      20.78205223      20.86803008 
Au      29.10572126      27.46048000      28.37149604 
Au      30.11493626      20.96917901      27.32563276 
Au      18.13173389      23.81363652      20.37267402 
Au      17.77521483      19.60763249      20.76262280 
Au      25.75871155      27.71958085      30.55040310 
Ag      28.17788153      23.40229147      31.37740219 
Au      21.92045469      30.28506908      28.10117490 
Au      21.81442499      24.14788336      32.92961358 
Au      18.66476429      27.94860311      20.10469946 
Au      16.17665858      21.87426061      21.70447214 
Au      30.56343143      25.09469066      27.18812263 
Au      23.42673710      23.53469283      24.30355413 
Au      20.01932601      30.06488918      21.67099594 
Ag      16.55056146      20.04740869      26.51033662 
Ag      26.76440471      17.00700582      26.89149411 
Au      30.02868003      25.27961237      30.09231447 
Au      17.61894819      28.46648747      25.88389867 
Au      16.26893866      26.41211506      24.29715582 
Au      28.56597609      29.22850797      23.41886144 
Au      27.82785486      26.91141841      18.94693013 
Au      24.09327055      19.07404034      18.63448798 
Au      27.33837131      16.82210230      24.00552328 
Au      26.94537054      18.75351728      19.17099837 
Au      26.04366169      21.35873604      32.68162621 
Au      12.47894419      18.90518184      22.07537938 
Au      22.98797252      21.11827614      16.89611336 
Au      26.30434590      29.21840222      19.72641316 
Au      20.17122124      19.73960407      32.45860570 
Au      26.09278281      17.20273422      29.70033821 
Au      29.27360218      18.68617943      22.74799674 
Ag      27.66385871      29.80500034      29.35583768 
Au      15.20768552      22.43644453      27.49945819 
Au      26.07425583      20.79419355      17.25700448 
Au      24.57647246      23.79920448      33.59443088 
Au      23.56573744      25.10849642      16.53636299 
Ag      17.42820352      17.86788124      28.17501302 
Ag      19.09928020      30.53954468      27.50540384 
Ag      23.47927029      29.54790291      19.12951242 
Ag      22.45031471      25.62518867      22.44991309 
Au      16.10020447      20.10941693      29.36638887 
Au      27.47623228      19.15331468      31.39566177 
Au      29.16130253      28.97196584      20.53587443 
Au      16.47421509      24.50686079      29.04998533 
Ag      32.06450874      22.82831481      26.09944519 
Ag      16.63577925      21.56257091      18.86529524 
Au      24.90499137      31.59655546      20.67478820 
Au      21.96917838      31.76949740      20.33284477 
Ag      20.68888704      25.33402138      16.07055976 
Au      24.29191881      31.95720217      23.99043823 
Au      20.58035639      29.72388368      18.76627311 
Ag      23.14485822      14.96950728      21.60675753 
Au      30.31386743      22.54585405      19.51603747 
Au      25.07387968      22.87218745      15.51391612 
Au      18.73404389      23.54787325      17.37591613 
Au      28.91031525      20.54906015      17.95234054 
Au      17.60720570      22.56465101      31.00410186 
Au      17.22502074      28.75766362      28.76270127 
Au      27.87363888      16.68321596      21.03741724 
Ag      15.61191854      26.84741275      27.13391622 
Ag      18.92560440      15.57516139      27.11788831 
Au      19.61328782      15.33680131      24.00182551 
Ag      18.06059380      26.77391769      30.72796403 
Au      20.21923393      15.34307464      21.22890831 
Au      27.30701497      31.60877910      24.26707836 
Ag      24.94242342      15.13819974      28.22547526 
Au      23.96222318      23.31504063      21.42897716 
Au      20.07711457      21.03527424      16.36225846 
Au      27.85348154      22.73131330      15.87139336 
Au      31.42262437      20.40271427      21.75205254 
Au      26.84783443      31.79066812      27.47138632 
Ag      25.68061020      14.84041137      25.21486404 
Ag      28.72476062      16.20121485      28.89582056 
Au      25.99512426      14.86548781      22.28244518 
Au      32.57304913      22.65151702      23.25254977 
Au      25.69729572      30.45766991      31.39225769 
Ag      22.93246752      30.93253972      30.77777316 
Au      24.22420804      16.88458430      31.87169914 
Au      31.32837113      17.85585339      24.72552496 
Au      17.10117525      26.06169107      18.58824554 
Au      31.56043375      23.02454941      28.88040800 
Au      29.37540673      16.02896035      25.99829273 
Au      15.53871056      29.24478204      23.93540139 
Au      16.06199935      29.04425128      21.09320353 
Au      17.00427663      31.18932583      25.58381749 
Au      29.44966461      24.90206107      17.79714628 
Au      30.77220903      18.01148341      27.65526112 
Au      18.59516826      17.56261541      30.88752407 
Au      24.13788876      19.58973961      33.68227364 
Au      18.05583251      30.75525451      19.75864196 
Ag      17.47489633      31.12613680      22.65465463 
Au      14.19480559      27.09987121      22.33646870 
Au      32.63321693      19.98604836      26.32729902 
Au      24.81419227      25.57338591      25.94746938 
Au      32.89064577      26.88187952      23.00961726 
Au      24.75274448      20.01279049      14.91480876 
Ag      20.06806402      31.03210337      30.23951303 
Au      31.75344327      27.77657802      27.09570866 
Au      23.70264563      28.52490377      32.50312817 
Au      29.80900615      15.86457504      23.05617099 
Au      22.50641760      16.94082067      34.50573952 
Au      13.35199133      19.58370087      28.45085069 
Au      24.05305604      27.80983978      15.58179823 
Au      15.28141752      17.49501204      30.78209380 
Ag      25.59394166      25.58918505      14.60656281 
Au      28.82901034      30.57928657      32.53909132 
Au      22.19967921      29.84786144      16.43511386 
Au      21.96434420      21.72703502      34.95877777 
Au      31.45266271      28.28682085      31.41003475 
Au      19.39828439      14.00500074      29.55765991 
Au      22.22137631      25.33388425      12.97101121 
Au      16.11835010      14.85089541      28.01908458 
Ag      25.30364874      32.81756647      29.68384641 
Ag      26.75256041      14.64683906      30.92595832 
Au      28.47004899      13.32613131      24.04220763 
Au      16.11630514      16.90818093      19.32758544 
Au      16.05052778      17.65020172      22.70755036 
Au      20.72894586      15.39455371      17.61963803 
Ag      12.04793595      24.74582140      23.15549276 
Au      14.59191415      30.22879827      27.14003555 
Au      24.36493845      21.38458862      26.13510913 
Au      15.07109814      19.60109436      20.33917824 
Au      25.54590436      31.22075277      17.97592800 
Au      28.66687572      20.34248434      14.34736245 
Au      30.16329400      27.00441315      22.43194758 
Au      31.10179165      24.93514277      24.23996833 
Au      31.83308999      24.82979502      21.37051193 
Au      20.55346197      23.82976385      23.78596567 
Au      25.27734995      14.82601498      16.02772252 
Au      31.23520190      29.04724876      24.40221622 
Au      25.76889606      23.38803441      27.88146136 
Ag      26.96551492      27.64306126      16.32696177 
Au      20.73920312      31.47505488      33.17650704 
Au      17.74547158      24.03679967      23.31018272 
Au      23.00841661      19.30315352      24.46081673 
Au      27.81014530      20.96468482      23.80237259 
Ag      19.59429494      25.89531372      21.93839298 
Ag      24.80700043      30.76673663      14.99678983 
Au      25.20305660      19.30209791      27.95372912 
Ag      19.09118238      26.14922291      24.84347130 
Au      20.56767764      28.21550228      26.44262453 
Au      21.46512069      26.04784509      28.27593923 
Au      29.16793924      23.08338745      25.51329345 
Ag      19.14803313      21.72833271      22.22632145 
Au      24.52187705      17.01493693      23.42042307 
Au      22.95424930      28.15352367      29.82467967 
Au      20.66948844      19.46047570      21.14934187 
Au      20.40028564      22.27491688      31.25173893 
Au      24.85836929      30.06928389      28.71941256 
Ag      18.07834156      28.31788213      22.98260274 
Au      28.15916946      18.97769110      28.55966882 
Au      18.91109693      20.14988139      29.75100746 
Au      29.79574732      22.78985278      22.57431071 
Ag      19.56472178      21.50615885      19.26361023 
Ag      18.28309819      17.69968444      25.29466760 
Au      15.73747674      22.19919569      24.62066766 
Au      16.71785843      26.19042931      21.38325848 
Au      26.54294344      24.87916493      17.24181112 
Au      28.09991243      29.49272424      26.30029131 
Au      17.24999762      19.88717000      23.71765347 
Au      18.86982570      17.56293428      22.44476151 
Au      30.68891912      20.74684828      24.45418770 
Au      22.12550929      27.36408320      17.71807744 
Au      21.09941893      19.28053303      18.30282005 
Au      22.18336974      17.19227482      19.89532662 
Au      21.96092323      15.38435218      27.58838441 
Ag      19.04446945      24.56350934      32.43566864 
Au      26.48790149      25.56900242      32.57321163 
Au      14.92382073      24.30817656      22.74396887 
Au      29.64809184      20.73523834      30.21519487 
Au      23.85095285      32.10706034      26.77701527 
Au      22.54431591      15.08736204      24.78593811 
Au      24.99916930      16.90494502      20.44078792 
Au      28.54646974      27.79444749      31.18921197 
Ag      19.24578198      17.37086924      19.51825912 
Au      27.76356382      31.24206853      21.49225299 
Au      15.35700071      24.02179924      19.89376908 
Au      21.37884733      17.19693806      31.41474598 
Ag      21.25815850      32.16808009      23.16127722 
Au      14.21798048      24.57684770      25.43198257 
Au      22.33050842      23.07226251      14.87849537 
Au      30.68069031      26.82822533      19.45568140 
Au      18.30305945      19.34526129      17.75471384 
Au      22.79014917      18.27574751      16.22627684 
Au      15.57816849      17.49949184      25.83577737 
Au      30.25988564      29.95730086      28.15049474 
Au      29.79191237      18.29910814      19.84631105 
Au      13.53422926      21.82175699      22.75349437 
Ag      30.30349472      17.79988272      30.88206637 
Au      26.77763829      15.94552380      18.47023238 
Au      20.92358347      32.30744939      26.30799726 
Ag      19.33765763      27.84118920      17.10141007 
Ag      25.79507692      17.93268653      16.60038377 
Ag      14.47195283      19.60175475      24.33034010 
Ag      19.08903241      33.28997088      20.91125112 
Au      23.87857267      22.05961653      12.38717252 
Au      34.69708964      22.57467425      27.46260740 
Au      28.96809838      32.91438214      29.39081121 
Au      19.19559529      31.35210037      16.50331441 
Au      23.59319830      15.06968090      18.77807215 
Au      13.86542904      27.10585342      19.30305236 
Au      20.91414983      26.81654551      34.35232674 
Au      19.62597875      28.68705620      32.11309929 
S      20.74951332      15.84031938      33.39805347 
S      28.57661669      32.51142905      19.55744266 
S      23.96166123      22.75142474      35.73379279 
S      24.24065209      18.10020107      35.59738927 
S      12.32062319      18.26238245      24.33228756 
S      32.27880242      17.47400402      29.48442248 
S      31.44654071      14.87361548      21.53612852 
S      29.84357814      19.26654828      16.07942314 
S      28.29193396      21.98076397      33.42842929 
S      23.02092680      27.86024593      34.73548618 
S      13.48501489      30.03116002      25.07328741 
S      16.35257434      17.95402131      17.21984935 
S      32.66841147      23.19069574      19.74682493 
S      26.72116985      30.72754435      33.58478308 
S      22.78851969      32.52439514      32.73573064 
S      17.15252833      31.60783975      17.64984567 
S      11.21558384      22.45995884      22.96505980 
S      25.09395460      13.07576392      26.87615520 
S      33.79175571      29.10945420      27.50132230 
S      28.56845642      26.52672763      33.36076329 
S      23.96697118      24.32690014      11.72271245 
S      27.55627669      25.90053651      13.12450663 
S      19.20967964      33.36150372      30.24790118 
S      28.70564915      17.51045471      32.71790969 
S      21.27263417      34.12958766      24.71770666 
S      30.79967204      32.28872412      28.03417329 
S      28.90864481      29.19003108      16.20060033 
S      33.54452090      17.31301357      23.83310843 
S      34.87225337      21.83122062      23.49796790 
S      19.16130583      13.56095002      25.56757862 
S      20.85905369      33.66363594      19.27937838 
S      12.70718411      19.50397159      19.79816404 
S      18.70565877      30.36516338      33.64502834 
S      31.98813382      30.94312203      23.09153573 
S      35.25714822      27.28724725      23.40286649 
S      31.07433116      30.58425833      31.80968338 
S      23.12834179      13.18322272      23.36928103 
S      32.05174636      19.20374069      19.71740307 
S      28.70210637      14.65071938      17.73012309 
S      15.55556969      30.47238062      29.28168689 
S      31.62861185      21.88049956      31.05879642 
S      20.41221742      26.52857606      13.89311398 
S      17.16172887      26.91620010      16.31018677 
S      27.34867503      12.83901988      22.02027133 
S      16.90029581      33.54961432      26.17966622 
S      15.38246628      21.63557961      31.26401558 
S      21.09884729      16.63821138      15.62403729 
S      24.65536462      28.89457997      13.47282987 
S      20.09624197      22.20418206      14.22695008 
S      21.04421210      31.46024238      15.03481945 
S      23.46034216      33.91163334      28.39019753 
S      13.48127661      17.36545606      29.26034726 
S      24.35547402      33.52055856      22.08763376 
S      27.63605920      21.24405620      12.41979063 
S      16.43567591      22.94443423      16.77748610 
S      26.05273919      16.48228191      14.55344607 
S      17.09882024      14.18958117      30.06677129 
S      28.86919366      13.96253232      29.95999111 
S      27.31219445      33.83643312      30.78308676 
S      32.72783603      28.17516436      19.32132026 
S      24.98170190      14.68397169      32.57814875 
S      14.35071361      29.41431155      19.33588811 
S      13.31340626      25.82372059      27.29234471 
S      34.54648630      20.25176398      27.81365309 
S      30.23439538      23.49193299      15.98501072 
S      18.74083245      25.86720345      34.52548258 
S      35.24776131      24.84199692      27.16035785 
S      19.84823989      20.68285507      34.66225153 
S      32.13017888      26.05666668      31.10653365 
S      23.71277276      19.73129250      12.73809300 
S      17.11643613      33.56676603      22.29183127 
S      15.61901371      26.18489077      30.61318106 
S      11.82921261      27.16623436      22.92269748 
S      24.40304605      13.18168014      17.48912807 
S      13.18741100      24.84823273      19.12179102 
S      21.68266966      13.56608706      29.20451033 
S      16.83642104      17.50360829      32.55839201 
S      15.68756945      15.68119178      21.31396565 
S      14.94294362      15.14448602      25.99748142 
S      25.22629664      32.81462245      16.20831824 
S      29.60849083      13.60040365      26.08704321 
S      20.13458986      13.83070723      19.31040775 
S      27.18353725      33.54333439      25.73462474 
S      12.86303438      21.73876777      27.64933186 
C      21.30807620      14.11410004      33.14898683 
C      30.34855618      32.86503611      19.88012061 
C      23.38523206      24.15358575      36.77191166 
C      23.51184335      18.95987324      37.04352934 
C      10.96444379      19.26560475      25.05244927 
C      32.56511733      15.66365857      29.37757290 
C      31.59856861      13.07084977      21.84729837 
C      31.55288247      19.90430702      15.89839791 
C      28.06281943      22.97784706      34.94774623 
C      22.66129527      29.37727675      35.69839874 
C      13.22409720      31.74248422      24.46553418 
C      16.96517976      16.65447372      16.07540918 
C      33.18737728      24.16811257      18.28840776 
C      26.50635575      32.47528957      34.09514422 
C      22.38408671      34.21351662      32.14324744 
C      16.98924880      33.43704145      17.68805068 
C      10.51166948      22.38146222      21.27005666 
C      26.55241927      12.11682164      27.44238139 
C      34.74628536      28.25459865      28.81298807 
C      28.11037882      27.57150955      34.79417871 
C      23.29373922      24.32687406      10.01010230 
C      26.95378499      26.54126540      11.51571722 
C      17.76185298      33.34182740      31.37992918 
C      29.37113314      18.40500985      34.17582509 
C      19.74418649      35.12142532      24.54019444 
C      32.32543519      32.58276228      29.00464967 
C      28.71750318      30.18492108      14.67040341 
C      34.48708818      16.63617722      25.25499128 
C      35.63347988      21.93420576      21.83145333 
C      17.57502403      12.79636731      25.05686376 
C      21.76484194      35.16964280      19.81197246 
C      12.40942018      17.99823954      18.79140502 
C      18.80698440      29.75296236      35.37071681 
C      33.63946015      31.46423794      23.69642414 
C      35.78970332      28.65533004      22.30440744 
C      32.02532639      30.90478211      33.35166574 
C      21.63751721      12.15250107      23.09323428 
C      33.23286018      17.86995072      20.13744325 
C      28.20639456      12.88666439      17.84278685 
C      14.36338141      29.72916573      30.46147343 
C      33.02760438      20.70566589      31.15372896 
C      18.94105384      25.73893482      13.13048028 
C      15.96771248      28.29943314      16.17506779 
C      26.27142997      11.40324922      22.39870509 
C      15.23937539      33.95934159      26.84562231 
C      15.36555223      20.76854213      32.87659567 
C      21.84721894      15.45412918      14.44193920 
C      23.09850917      29.14769109      12.53372411 
C      20.28687947      20.92243935      12.93247936 
C      21.69097344      33.14408315      15.37567721 
C      24.15886746      35.37503673      27.53327150 
C      12.00457318      17.24261733      30.35061930 
C      25.88202600      34.52601320      22.18559436 
C      28.96992842      21.14551921      11.15708734 
C      16.46604343      21.78437463      15.35871799 
C      27.84232449      16.16023809      14.30626976 
C      16.58004452      12.42951322      30.21374530 
C      29.94335446      13.94863127      31.45512888 
C      27.23987419      35.60384879      30.28224477 
C      32.52218693      29.32717020      17.90724427 
C      25.91033038      14.94739680      34.14083276 
C      12.94386741      30.19658204      20.21633899 
C      12.02842623      26.95876727      26.64771977 
C      36.06977385      19.62665443      27.00103892 
C      30.65195034      24.60850575      14.59446798 
C      18.88787897      24.64354420      35.88959001 
C      36.55312451      24.75134482      25.87264204 
C      19.80488361      19.30311164      35.86902242 
C      32.12308153      25.34836998      32.79730344 
C      24.91187124      18.91201322      11.62164445 
C      15.68340093      33.69130337      21.14923662 
C      15.16846678      25.34401071      32.17816252 
C      10.78656950      27.30435011      21.41550060 
C      22.97357484      12.40441710      16.64097021 
C      13.08640857      24.51915399      17.32041608 
C      21.67781818      12.05234027      28.16785001 
C      16.80531543      15.83784805      33.32000735 
C      13.88853634      15.32436294      21.31598942 
C      13.15956280      15.06293373      26.41110778 
C      26.89613274      33.42822730      15.74740574 
C      31.38158252      13.29636714      25.72722295 
C      18.36467064      13.42845832      19.02977385 
C      28.86865872      34.26225240      25.77445644 
C      12.24930305      22.62167960      29.13548314 
H      22.35863398      14.07386282      32.83869964 
H      21.17582182      13.57670037      34.09525738 
H      20.67148649      13.67271359      32.37123532 
H      30.79052794      33.26679403      18.96122143 
H      30.39604308      33.61821374      20.67541757 
H      30.88786477      31.96549580      20.19869057 
H      24.26993969      24.73439414      37.05866973 
H      22.69135632      24.79923834      36.22197729 
H      22.90039620      23.74938813      37.66771545 
H      23.22019457      18.20824447      37.78547335 
H      24.28937226      19.61408924      37.45543279 
H      22.64983695      19.57180180      36.75456046 
H      11.11597623      19.28843522      26.13919064 
H      10.97162770      20.28802472      24.65815666 
H      10.00983280      18.78177676      24.81636092 
H      33.29082899      15.48248115      28.57595900 
H      32.98490140      15.32498925      30.33212317 
H      31.63716029      15.12082422      29.16426879 
H      30.61988887      12.61502488      22.03298059 
H      32.07220595      12.61046102      20.97277450 
H      32.24215502      12.93671640      22.72463906 
H      31.55234089      20.99612178      15.80249581 
H      32.10185583      19.61138756      16.80242892 
H      32.00330901      19.44053178      15.01358602 
H      27.64419924      22.33980478      35.73384085 
H      29.04991142      23.34790548      35.25058912 
H      27.39383439      23.82719457      34.76038827 
H      21.98308409      30.04898189      35.15459725 
H      22.22444784      29.08928324      36.66146390 
H      23.61759083      29.88813457      35.86422270 
H      12.54294483      32.26338831      25.14775805 
H      14.17330765      32.28250013      24.38602437 
H      12.76228828      31.66227909      23.47389530 
H      17.15529407      17.13400256      15.10786194 
H      17.89230184      16.19899846      16.44137513 
H      16.18389692      15.89384047      15.96638749 
H      32.41429739      24.89450548      18.00843050 
H      34.11552071      24.69214667      18.54437378 
H      33.35993580      23.47278794      17.45840940 
H      26.86831705      33.16160886      33.32235491 
H      25.43391266      32.63401634      34.26297180 
H      27.06255137      32.62269537      35.02812214 
H      21.57845005      34.19752325      31.40167395 
H      22.09401986      34.82599825      33.00413132 
H      23.29302556      34.61954193      31.68263573 
H      16.08153563      33.67944377      18.25157028 
H      17.85969474      33.90595449      18.16028369 
H      16.88570597      33.79029434      16.65595151 
H      11.13289373      22.92851334      20.55309066 
H      10.44410970      21.32900552      20.96960414 
H       9.50976368      22.82556001      21.30722937 
H      27.38762797      12.75852189      27.73727878 
H      26.24682043      11.51072049      28.30323386 
H      26.87582168      11.46111735      26.62534990 
H      35.73360814      28.72627116      28.87774738 
H      34.19941560      28.38973217      29.75531637 
H      34.85530653      27.18596474      28.59978027 
H      28.05132451      26.92341303      35.67695355 
H      28.89460672      28.32537008      34.93523795 
H      27.15162773      28.07458907      34.63757925 
H      23.21672102      25.36821737       9.67667599 
H      24.00003892      23.78310128       9.37237865 
H      22.31076235      23.84948822       9.96894366 
H      26.08368057      25.97148301      11.17349969 
H      26.66729550      27.58888193      11.66718827 
H      27.76696430      26.47066512      10.78485531 
H      18.14073838      33.18544745      32.39744947 
H      17.25299897      34.30986515      31.31512502 
H      17.06681569      32.53692216      31.11924568 
H      30.26006112      17.87514732      34.53602321 
H      29.61927922      19.44200346      33.92458012 
H      28.59609153      18.40175436      34.95161763 
H      18.86689164      34.50391600      24.32928856 
H      19.57918454      35.68039262      25.46850786 
H      19.90079092      35.82140638      23.70989562 
H      32.22477017      32.19233732      30.02244556 
H      33.14588602      32.07175012      28.48597999 
H      32.50685373      33.66361410      29.02645690 
H      29.47995187      30.97151568      14.64690194 
H      28.87106628      29.50188600      13.82578734 
H      27.71630092      30.62767078      14.59344366 
H      34.19135659      15.58612811      25.36866431 
H      35.55818804      16.69441900      25.03072430 
H      34.25868603      17.18330063      26.17542839 
H      34.92639539      21.62963311      21.05291837 
H      35.91826086      22.98113722      21.67084163 
H      36.52531658      21.29811727      21.81388644 
H      17.12879860      12.31242461      25.93404582 
H      16.87446535      13.53971042      24.66582071 
H      17.78838033      12.04554919      24.28693200 
H      22.65146811      35.27191326      19.17502045 
H      21.10690234      36.03510815      19.67338956 
H      22.08018230      35.09785895      20.85822243 
H      12.69705819      18.23464906      17.76006850 
H      13.00705411      17.15201008      19.14377683 
H      11.34162183      17.75514874      18.83598595 
H      18.75037069      30.61178242      36.04885756 
H      17.94933405      29.08848766      35.52890428 
H      19.72852469      29.18623215      35.54151831 
H      34.24951849      30.60490010      24.00295371 
H      34.14611920      32.03980256      22.91358859 
H      33.46436633      32.10384927      24.57051666 
H      36.00829461      28.21367206      21.32495414 
H      35.00003737      29.40551538      22.18445465 
H      36.69513387      29.10996105      22.72158433 
H      31.75660487      30.19890080      34.14240551 
H      33.09179541      30.81175006      33.11613988 
H      31.80398741      31.92858478      33.67441371 
H      21.38506570      11.64157516      24.02930248 
H      20.78737653      12.76576817      22.77223433 
H      21.88266755      11.41839396      22.31646133 
H      33.32730554      17.21615754      19.26215122 
H      34.19977271      18.33507296      20.36526839 
H      32.89963579      17.28126302      20.99650860 
H      27.45283642      12.70363998      17.06692032 
H      29.09587559      12.27340234      17.65837339 
H      27.78816085      12.65552286      18.82769927 
H      13.45043523      30.33494128      30.46146632 
H      14.13855355      28.69007101      30.19976927 
H      14.83206871      29.75967095      31.45265694 
H      32.86629047      20.05460311      32.02176567 
H      33.11853537      20.09743367      30.24990580 
H      33.94471335      21.29100617      31.29176591 
H      19.00765130      24.64645536      13.18861717 
H      18.06585650      26.08332994      13.69603990 
H      18.86738600      26.06158816      12.08621100 
H      16.07251033      29.01565092      16.99464222 
H      16.15887158      28.81071430      15.22379286 
H      14.95084118      27.88912665      16.18116265 
H      26.90761820      10.53396283      22.59860712 
H      25.61824493      11.60989537      23.25311409 
H      25.65696385      11.21981874      21.50892972 
H      14.56026233      34.07215723      25.99252692 
H      14.86972562      33.17318318      27.51335697 
H      15.31119840      34.91161607      27.38313105 
H      15.13654243      21.50902526      33.65256733 
H      14.58309554      20.00035411      32.85135948 
H      16.32904045      20.29568533      33.08883738 
H      22.03186888      16.00225061      13.51008644 
H      22.79816910      15.05452547      14.82006986 
H      21.13500742      14.64176140      14.25702062 
H      22.32478495      29.61701573      13.15029356 
H      23.33252912      29.79148752      11.67753708 
H      22.74422655      28.16882438      12.18555730 
H      19.28730215      20.53455067      12.70161066 
H      20.72356951      21.38820397      12.04075609 
H      20.93367961      20.10633203      13.26761043 
H      22.67162434      33.23527043      14.89440181 
H      20.98792897      33.86315965      14.93980598 
H      21.78661695      33.31978437      16.45236102 
H      24.21767563      36.19960831      28.25385828 
H      25.15415556      35.16071491      27.12666015 
H      23.48132783      35.64559241      26.71368490 
H      12.04669376      16.27630945      30.86609812 
H      11.98106923      18.05388393      31.08353028 
H      11.11142517      17.28693365      29.71664668 
H      26.01569444      35.03590169      21.22444160 
H      25.74934871      35.25890760      22.99022247 
H      26.75331086      33.89382869      22.39911322 
H      29.88864750      21.62465535      11.50672324 
H      29.15946704      20.08666924      10.94636155 
H      28.61133733      21.64602962      10.25038598 
H      15.46935278      21.33636360      15.26896061 
H      16.70665192      22.35026236      14.45121550 
H      17.21451032      20.99642631      15.50922327 
H      28.33704619      15.89463409      15.24644516 
H      27.95595083      15.34653935      13.58119680 
H      28.28567700      17.08235100      13.90906997 
H      15.49286326      12.41050752      30.35071753 
H      16.85431497      11.85686682      29.32338724 
H      17.07273767      12.00520473      31.09626202 
H      30.98071640      13.79929685      31.13412430 
H      29.86709751      14.88487348      32.01899017 
H      29.63998988      13.10913546      32.09076355 
H      27.04872871      35.70471582      29.20959558 
H      26.42303311      36.07417495      30.84289929 
H      28.18709253      36.09157643      30.53866448 
H      32.62769913      28.74285460      16.98559775 
H      31.53655973      29.80624137      17.91905099 
H      33.31415201      30.08279311      17.96232252 
H      26.66346077      15.73448438      34.02350369 
H      25.19805516      15.22949862      34.92554150 
H      26.39954397      14.00170558      34.40230136 
H      12.77726171      29.72466510      21.19099000 
H      13.19656689      31.25470885      20.35606157 
H      12.04608415      30.11345863      19.59309486 
H      12.35363215      27.48090548      25.74377077 
H      11.12203640      26.38214469      26.43014749 
H      11.82037700      27.69606993      27.43310987 
H      36.09724562      19.90183691      25.94079332 
H      36.93591334      20.04500945      27.52595664 
H      36.07327113      18.53511876      27.10242928 
H      29.96413518      25.45681257      14.53303089 
H      31.67501993      24.96920827      14.75631137 
H      30.60003109      24.03613364      13.66027261 
H      19.69917818      23.93067970      35.70387041 
H      19.06152589      25.17712448      36.83053123 
H      17.93708664      24.09997307      35.94501482 
H      36.73851941      25.77094506      25.51434476 
H      37.45767196      24.34297436      26.33759080 
H      36.23839481      24.11485870      25.03908274 
H      19.84789716      19.71952671      36.88195635 
H      18.85246985      18.77879583      35.72455855 
H      20.63362572      18.60028362      35.70687583 
H      32.20161756      24.25910021      32.68852005 
H      32.99253845      25.73860872      33.33833866 
H      31.19679638      25.60344835      33.32434408 
H      25.86105643      19.45711386      11.59751830 
H      25.07079468      17.89710016      12.00672339 
H      24.46787269      18.87304421      10.62011821 
H      14.77284800      33.69769030      21.76057841 
H      15.74452191      34.62915792      20.58572546 
H      15.64757836      32.84163460      20.45923088 
H      15.01643555      26.11705983      32.94073059 
H      14.24088035      24.78165114      32.02194982 
H      15.96086017      24.65666457      32.49890233 
H      11.18491313      26.70319931      20.59130013 
H       9.77778682      26.96190017      21.67426284 
H      10.74613510      28.35655589      21.11146352 
H      22.46942055      11.76383477      17.37429177 
H      22.26595587      13.15605549      16.27629342 
H      23.35003334      11.79813366      15.80927746 
H      12.85990662      23.45308485      17.19863166 
H      12.27518897      25.12417938      16.90060172 
H      14.03576033      24.74545070      16.82419590 
H      22.69231666      11.94250710      27.76190767 
H      21.42862870      11.20046272      28.81052209 
H      20.95415115      12.14052867      27.34999038 
H      16.75814852      15.05762563      32.55363232 
H      17.72747211      15.73066226      33.90452528 
H      15.92999352      15.78185548      33.97728633 
H      13.29543526      16.24765367      21.29183250 
H      13.64687827      14.68582206      20.45888138 
H      13.67456785      14.78724176      22.24838776 
H      12.88728052      14.00919952      26.54043194 
H      12.94455893      15.62833260      27.32379130 
H      12.60962543      15.49893562      25.56791786 
H      27.65681855      32.64836996      15.85669598 
H      26.86523461      33.78481033      14.71162194 
H      27.14068798      34.25920714      16.41928470 
H      31.73691385      13.94706763      24.92172994 
H      31.93844220      13.50683539      26.64834311 
H      31.50808615      12.24325688      25.45138732 
H      18.28176438      12.88617884      18.08096050 
H      18.03961021      12.78517880      19.85604390 
H      17.74271953      14.33096833      19.00698367 
H      28.95669668      34.93493016      24.91255009 
H      28.98690093      34.82896305      26.70587809 
H      29.63977386      33.48844904      25.72388795 
H      12.23017498      23.68993476      28.88260791 
H      11.23655661      22.26411112      29.35298816 
H      12.90831958      22.45086476      29.99413708 
