699
Properties=species:S:1:pos:R:3 i=88 optimized=T E=-10972.8094176732 pbc="F F F" jobid=279_84-Ag-20_1-000002-PBE
Au      33.23761722      25.35157721      26.24399729 
Au      32.11329206      29.42366890      21.50552084 
Ag      34.48679295      28.00133184      25.48405410 
Au      29.94859379      14.98026417      19.71517452 
Au      34.07823221      19.57054836      23.65202161 
Au      27.47998722      23.56456519      12.78136582 
Au      18.27204987      33.23737896      28.14828777 
Au      28.52026420      30.71773950      18.07506390 
Au      24.96930893      21.24832444      23.22771430 
Ag      26.31001513      23.25927002      24.90765761 
Au      28.24462592      25.13618682      23.65252915 
Au      23.78317448      21.62721901      29.04068906 
Au      23.40546874      27.91294561      27.01166439 
Au      26.93113333      23.07784110      22.00621287 
Au      22.37284641      19.52940205      27.37619475 
Au      27.23429656      21.15082574      26.68553403 
Ag      22.05705588      21.47468704      22.71650015 
Au      21.06323066      23.55393381      20.85043122 
Au      27.66870397      25.29651189      26.56568625 
Au      19.97113458      24.02669073      26.69887518 
Ag      25.51873327      21.07571381      20.32424158 
Au      24.35195793      25.73939995      28.80952425 
Au      23.87431004      27.75217448      24.08264388 
Au      26.27107454      27.67962033      27.63475463 
Au      20.89207038      21.89393522      28.41670342 
Au      22.88000246      23.71150930      27.18580901 
Ag      21.48918306      21.66246848      25.58588762 
Au      19.50401121      19.81435907      26.89405522 
Ag      25.85293060      19.09955797      25.08956200 
Ag      25.24188057      23.59231185      30.75848853 
Au      23.04287786      25.38650474      19.54435365 
Au      20.99058340      27.93290362      23.56019319 
Au      26.69650355      27.42603076      24.74841502 
Au      22.62599570      21.33767377      19.82773606 
Au      21.96780862      25.86326859      25.35734290 
Au      27.24319803      25.51047601      29.48367110 
Au      20.14523381      19.62448582      24.02965833 
Au      25.92337798      25.11056203      20.16595798 
Au      23.52999172      19.19546042      21.62289933 
Au      22.31506222      23.92932380      30.04322306 
Au      21.03860396      17.42408086      25.84030376 
Au      21.58986582      27.65675714      20.59964419 
Au      24.45132761      27.45321651      21.21058324 
Au      24.54798012      23.11333089      18.50174788 
Au      28.64171236      23.18696290      28.48188683 
Au      18.61083308      21.92149010      25.10018254 
Au      26.69399862      21.29277646      29.63113492 
Au      22.42226240      30.12741134      25.20149961 
Ag      27.28043712      27.16662428      21.79816090 
Au      21.77282817      19.70893441      30.24181296 
Au      18.45935157      26.36496346      27.72768838 
Au      23.12189146      21.73100596      31.97881663 
Au      21.61826223      23.41801019      17.90029416 
Au      17.03283115      24.24644916      26.18238169 
Ag      27.49015994      22.81610111      19.03543179 
Au      23.85673490      17.12285706      26.32905672 
Ag      23.26646999      17.39741233      29.24465890 
Au      25.24465445      29.83852638      25.81170286 
Ag      21.64429947      17.23570930      22.88501723 
Au      28.78921644      18.76726152      25.69823313 
Au      22.88323213      29.82924939      22.25765376 
Au      25.37339640      25.35976629      23.05361233 
Au      20.09302036      25.66255014      18.94126240 
Ag      29.54430077      27.19682864      25.39940584 
Au      19.33756543      24.27427701      29.59282447 
Au      17.92752914      22.15667215      27.96196073 
Ag      20.01932505      28.34520722      29.37933422 
Au      23.72183966      25.84419400      31.67151179 
Au      20.92531046      26.34363973      31.20312525 
Au      26.40841400      19.01367934      22.12636710 
Au      24.57886855      19.48629650      30.89877441 
Au      20.33336603      17.58845531      28.76097439 
Au      28.88575993      24.87794377      20.74027874 
Au      19.52325416      30.21864199      24.66424339 
Au      25.73831700      29.61062169      22.80273915 
Ag      24.95387653      27.19530749      18.24372117 
Au      28.43916288      20.79286181      20.86913050 
Au      29.14629715      27.50097934      28.29511356 
Au      30.05870603      20.92320708      27.29741055 
Au      18.14674217      23.86555521      20.30669233 
Au      17.68673828      19.62260773      20.69885904 
Au      25.75663508      27.76157848      30.49480451 
Au      28.09772332      23.48798979      31.30589350 
Au      21.96670704      30.20789128      28.16356627 
Au      21.75171781      24.10695414      32.94594246 
Au      18.70100679      27.92689207      20.11331277 
Au      16.25641870      21.91546177      21.68921154 
Au      30.51358887      25.12913030      27.18878308 
Au      23.42771996      23.50327264      24.30254723 
Au      20.02022823      30.01147040      21.69166101 
Au      16.53417057      20.00623232      26.47655332 
Au      26.70155930      16.99845356      26.92526621 
Ag      30.04680845      25.29669377      30.06043270 
Au      17.59939453      28.43728213      25.92945144 
Ag      16.14952461      26.29767486      24.31127090 
Au      28.54698082      29.21568016      23.40449655 
Ag      27.87264275      26.92645237      18.96339659 
Ag      24.12601004      19.06481591      18.69300312 
Au      27.34585908      16.82507481      24.00035367 
Au      26.97597017      18.79566782      19.19099881 
Au      25.91013666      21.41839579      32.65629078 
Au      12.42134068      18.82069614      21.91210025 
Au      23.05562446      21.12765661      16.89788191 
Au      26.35852554      29.21615341      19.80481133 
Ag      19.96765807      19.61238607      32.47713227 
Ag      26.11119013      17.17759361      29.82583056 
Au      29.27326583      18.71275965      22.76372037 
Ag      27.70604639      29.83857007      29.31913865 
Ag      15.09067016      22.35319926      27.49377283 
Au      26.12760156      20.84386946      17.31862244 
Au      24.52153129      23.88778058      33.60566405 
Au      23.60870035      25.21252779      16.46368838 
Au      17.48552895      17.94217976      28.24495158 
Au      19.11481605      30.42754844      27.57480177 
Au      23.53418462      29.54006028      19.34395706 
Au      22.47936841      25.60069600      22.45073557 
Au      16.08426245      20.12601069      29.40810787 
Au      27.41335414      19.20771596      31.40282106 
Au      29.16818668      28.95676303      20.56000310 
Au      16.46257176      24.41378947      28.99273629 
Au      31.93458286      22.81246826      26.06010401 
Au      16.63505277      21.61639028      18.81390898 
Ag      24.86437036      31.66664072      20.80388881 
Au      21.96025551      31.79251887      20.38979409 
Au      20.70630321      25.41722369      16.07134141 
Ag      24.27475475      31.93290820      23.92407420 
Au      20.68069586      29.74995620      18.76614900 
Ag      23.16523555      15.00468015      21.60095629 
Au      30.35724542      22.48404459      19.65491012 
Au      25.10443145      22.90835468      15.54184720 
Au      18.76479900      23.68970218      17.31330326 
Ag      28.96353651      20.56073932      17.98556847 
Ag      17.54460402      22.43396994      30.94565921 
Ag      17.14898114      28.68604141      28.80361757 
Au      27.87562096      16.72256888      21.03597381 
Au      15.56874632      26.91216979      27.06872011 
Au      18.76005456      15.64847646      27.21716319 
Au      19.61709175      15.44708527      23.95804847 
Au      18.06407061      26.70698022      30.79510585 
Ag      20.24327704      15.34563907      21.21558057 
Au      27.23358880      31.59899918      24.25100495 
Au      24.88554365      15.16908014      28.30857503 
Ag      23.99567428      23.32182942      21.41694776 
Au      20.07708401      21.15637386      16.41637773 
Ag      27.90083906      22.74982505      15.89555276 
Ag      31.41935418      20.38821760      21.67824605 
Au      26.76605598      31.82414438      27.52902674 
Au      25.58300330      14.89247117      25.16387081 
Au      28.74588643      16.27641230      28.86159970 
Au      26.02444033      14.87980306      22.29991935 
Au      32.54960330      22.60161714      23.25161057 
Au      25.77192977      30.40235311      31.46639883 
Ag      22.97708313      30.81867254      30.83632448 
Au      24.19947587      16.95044499      31.95886446 
Au      31.32784718      17.84500676      24.75679244 
Au      16.98696224      26.07735021      18.64415336 
Au      31.59226058      22.92252243      28.82151976 
Au      29.37150178      15.99094656      25.98409343 
Ag      15.48235156      29.13767444      23.99433087 
Au      16.05127580      28.92850821      21.10460046 
Ag      16.98061467      31.16084188      25.66065617 
Au      29.47364693      24.76369496      17.95256555 
Au      30.77698172      18.04406779      27.63812891 
Au      18.55603958      17.50110858      30.91724889 
Ag      23.89660334      19.62203222      33.68841576 
Au      18.06384113      30.68573972      19.75942001 
Au      17.41635279      30.97318375      22.71796152 
Au      14.16690808      26.98095446      22.30386613 
Au      32.66069526      20.00573552      26.33973574 
Au      24.82668617      25.56457322      25.94080040 
Au      32.97323148      26.86403782      23.05724443 
Au      24.87066566      20.08478411      14.91153039 
Ag      20.14979512      31.03529061      30.24266104 
Au      31.81916824      27.72599679      27.14127635 
Au      23.86082773      28.53974949      32.58532187 
Au      29.83603938      15.88384010      23.06433386 
Au      22.57551486      16.98444420      34.58340312 
Ag      13.86453044      19.42262844      27.64892025 
Au      24.11214855      27.87734100      15.53133824 
Au      15.09879711      17.55094382      30.65925951 
Au      25.73070644      25.61384624      14.63929035 
Au      28.92479278      30.66838792      32.44230947 
Au      22.69800598      30.15205201      16.71646031 
Au      21.98635578      21.72659288      34.95990278 
Au      31.49580501      28.22865146      31.29975770 
Au      19.24782912      13.90968861      29.56950530 
Au      22.20502144      25.22931454      12.83210900 
Au      15.95877600      14.67489747      28.13038538 
Au      25.46724511      33.84748448      29.27820569 
Au      26.61016212      14.48540304      30.97377070 
Au      28.53977566      13.29055971      23.94201124 
Ag      16.29334192      17.11167042      19.82181105 
Au      16.14102214      17.23768864      23.25966328 
Au      20.83663899      15.41748091      17.66063023 
Ag      11.99544514      24.62321693      23.15752934 
Au      14.65350435      30.22966239      27.24023629 
Au      24.36480120      21.36860072      26.11518968 
Au      14.92133491      19.86361329      20.19700697 
Au      25.44987736      31.15601551      18.01260221 
Au      28.71392083      20.40452329      14.32548953 
Au      30.23077142      27.07461637      22.54145547 
Au      31.17327682      24.98871345      24.29979170 
Au      31.85159923      24.82011424      21.46685821 
Au      20.55087564      23.76862236      23.80663937 
Au      25.26773998      14.73079687      16.11491854 
Au      30.79957095      29.69108230      25.08232651 
Au      25.75812195      23.40946278      27.83052155 
Au      27.06445891      27.56147011      16.32808948 
Au      20.87282791      31.47847796      33.14044346 
Au      17.68327936      23.96885386      23.29252648 
Au      22.99291661      19.30145658      24.48937377 
Ag      27.80942313      20.95685685      23.83210379 
Au      19.60538292      25.87158451      21.92991499 
Au      24.97335021      31.08284384      14.87547468 
Au      25.17767778      19.26872580      27.98147706 
Au      19.01958671      26.07305160      24.82003889 
Au      20.54366868      28.13152807      26.48080368 
Au      21.41227840      26.03398418      28.27143572 
Ag      29.13474840      23.06248938      25.49751782 
Au      19.19028563      21.72678615      22.17333351 
Au      24.50475777      17.02599674      23.43293710 
Au      22.91928535      28.10460528      29.90171763 
Au      20.67547307      19.45939429      21.10772554 
Au      20.35922172      22.17447751      31.31263131 
Ag      24.87198852      30.03986340      28.77045054 
Au      18.01499522      28.22093879      23.01330552 
Au      28.10993978      18.99404621      28.55087283 
Au      18.95091618      20.14316908      29.79244293 
Au      29.78734465      22.78887921      22.62585405 
Au      19.60207046      21.55735076      19.23262918 
Au      18.22426655      17.69266860      25.26635384 
Au      15.66341706      22.08411501      24.60226324 
Au      16.67253028      26.07495774      21.43750605 
Au      26.52120960      24.91544436      17.31398733 
Ag      28.07380540      29.57299393      26.28031660 
Au      17.18761318      19.82910052      23.60419257 
Au      18.82481402      17.58019410      22.32413370 
Au      30.67981386      20.68794440      24.41541083 
Au      22.13746397      27.46075041      17.62568268 
Au      21.18773669      19.29831200      18.27715739 
Ag      22.20032228      17.18027941      19.91979889 
Au      21.89211963      15.38755913      27.62895111 
Ag      18.99134112      24.45355975      32.45609769 
Au      26.39068266      25.67689646      32.52967220 
Au      14.83459175      24.17104074      22.76106784 
Au      29.62237281      20.70377984      30.19101143 
Ag      23.81316575      32.05798723      26.90143727 
Ag      22.49256006      15.09829893      24.72145819 
Ag      25.00023862      16.94689314      20.50597433 
Au      28.58461789      27.79399186      31.10339146 
Ag      19.33690587      17.41677354      19.49716402 
Au      27.72418821      31.25135736      21.49477971 
Ag      15.27856517      23.99863802      19.89261292 
Au      21.33685883      17.17184291      31.47096669 
Au      21.16875072      32.10568083      23.21130693 
Au      14.15254625      24.38459884      25.47808866 
Au      22.37102234      23.08126133      14.85530868 
Au      30.70064437      26.75253374      19.58529387 
Au      18.32402680      19.38622850      17.75065500 
Au      22.89289030      18.34193958      16.21493199 
Au      15.50248868      17.37131676      26.20298054 
Au      30.30851028      30.01639901      27.95925501 
Au      29.84773928      18.33239451      19.90296772 
Ag      13.58024518      21.53798332      22.62535833 
Au      30.37652585      17.61280553      31.06318819 
Au      26.72893841      15.97206567      18.49888075 
Ag      20.83052007      32.32230357      26.40655492 
Au      19.24517841      27.96749100      17.20617680 
Au      25.89286793      18.01927303      16.64064632 
Au      14.38160392      19.49404289      24.57667400 
Ag      19.08751291      33.15985299      21.08769109 
Au      23.87925838      21.95988922      12.31564748 
Ag      34.43317476      22.58727746      27.57022728 
Au      29.06464974      32.90173787      29.25663436 
Au      19.28792725      31.23591165      16.56704191 
Ag      23.74287426      15.13243520      18.74478652 
Au      13.85791143      26.96706997      19.26710759 
Au      20.91870847      26.70683945      34.38385248 
Au      19.58596574      28.56412589      32.23257120 
S      20.74622404      15.93285888      33.53133020 
S      28.53552868      32.56111933      19.59193464 
S      23.97680803      22.77768646      35.73086766 
S      24.34895125      18.12079261      35.63322531 
S      12.31154836      18.22388791      24.17765326 
S      32.20718186      17.58485454      29.57906005 
S      31.47495897      14.94860161      21.51434605 
S      29.93415088      19.35777038      16.02722857 
S      28.20551479      22.05436973      33.29527844 
S      23.01958203      27.78907565      34.73360450 
S      13.50857857      30.05982134      25.19198983 
S      16.47073523      17.83187895      17.45892720 
S      32.71246343      23.20634820      19.83934707 
S      26.88128690      30.91115976      33.59448129 
S      22.94237721      32.49817387      32.71387691 
S      17.21393916      31.57100531      17.65176012 
S      11.24507486      22.34366475      22.88942992 
S      25.00443799      13.19850113      26.81941890 
S      33.83061898      29.09231155      27.53466168 
S      28.51005956      26.58947857      33.28969769 
S      23.87421112      24.18426323      11.52626500 
S      27.45414844      25.91183306      12.93894050 
S      19.27595823      33.37112009      30.27541166 
S      28.67252577      17.55723542      32.70482754 
S      21.28698024      34.05109870      24.64671031 
S      30.91260189      32.36573089      27.89143779 
S      28.86296951      29.19123960      16.27608767 
S      33.52294874      17.28634186      23.83195097 
S      34.85178094      21.79099221      23.45163341 
S      19.18880743      13.74630892      25.64866916 
S      20.80307975      33.70951176      19.42941645 
S      12.61821167      19.36789320      19.63193848 
S      18.80821622      30.42593535      33.57747097 
S      31.85570793      30.97595664      23.29345719 
S      35.33280629      27.18130158      23.36976566 
S      31.13219669      30.54553523      31.61620712 
S      23.00079876      13.13687296      23.23939109 
S      32.09381852      19.16346732      19.57642796 
S      28.65757637      14.61580831      17.78124625 
S      15.58199415      30.53616477      29.39132731 
S      31.54844524      21.93793725      31.05180024 
S      20.46777359      26.43715812      13.86020285 
S      17.19026224      26.96227618      16.36866480 
S      27.36318402      12.84735800      21.93838025 
S      16.98937713      33.58245766      26.20043119 
S      15.19000034      21.64020655      31.14187483 
S      21.20869113      16.66893031      15.67197646 
S      24.71531472      29.17627746      13.52219329 
S      20.17889234      22.11072603      14.19013373 
S      21.20281026      31.33966201      15.19767078 
S      23.49141853      34.24022349      28.07062961 
S      13.29025827      17.49247825      29.15757254 
S      24.38620025      33.70175197      22.16017263 
S      27.65992204      21.25247171      12.38839736 
S      16.46166231      23.00099495      16.81138431 
S      26.02201555      16.47351578      14.71522769 
S      16.96469292      14.03057441      30.16657932 
S      28.57136919      14.01617174      29.74858738 
S      27.38608824      33.78708484      30.66203707 
S      32.68163717      28.20735723      19.53736693 
S      24.86278726      14.67060913      32.54233433 
S      14.40773374      29.26558262      19.32210312 
S      13.40809894      25.81801044      27.31550352 
S      34.61334730      20.16040087      27.78735140 
S      30.25131855      23.68548325      15.93749376 
S      18.76401039      25.71670713      34.60336391 
S      35.36510537      24.83019141      27.27488550 
S      19.87509043      20.67542070      34.71437089 
S      32.20613822      26.00070166      31.09551143 
S      23.80773744      19.64840932      12.76973976 
S      17.02605303      33.35134616      22.40707329 
S      15.68888476      26.13096185      30.57650673 
S      11.84360085      27.05581023      23.00477819 
S      24.41494303      13.04033335      17.51804067 
S      13.03670927      24.76214564      19.11226178 
S      21.53727811      13.52328375      29.18481893 
S      16.67689537      17.56411588      32.42121097 
S      15.64155758      15.54685125      21.61774281 
S      14.79245879      15.04625256      26.11712421 
S      25.31314546      32.91337208      16.32815030 
S      29.69999984      13.55721378      25.97891610 
S      20.24058389      13.79042518      19.27850421 
S      27.08128305      33.53156384      25.68889842 
S      12.72385813      21.62935859      27.35897250 
C      21.20560129      14.17873874      33.26741616 
C      30.31046693      32.88121867      19.93612254 
C      23.38083711      24.12042777      36.83352547 
C      23.64366289      18.90783681      37.13545899 
C      10.91459493      19.17681892      24.88433593 
C      32.68857660      15.82283917      29.40815281 
C      31.67983613      13.14892627      21.81387149 
C      31.62697481      20.04251711      15.83527740 
C      28.04995449      23.08382451      34.79973546 
C      22.64857340      29.28877612      35.71910129 
C      13.27927673      31.77678113      24.58136885 
C      17.04783758      16.42256978      16.43134734 
C      33.21580920      24.17684133      18.37215847 
C      26.67765561      32.67852663      34.02500629 
C      22.55765632      34.16201325      32.04233631 
C      17.12041043      33.40487858      17.70979863 
C      10.50795827      22.34157788      21.20455947 
C      26.48508328      12.20024315      27.21405141 
C      34.78556723      28.26608653      28.86496688 
C      28.10669692      27.71503767      34.67603035 
C      23.08231187      24.05735941       9.87090245 
C      26.67309724      26.55038042      11.40970568 
C      17.80798328      33.35876540      31.38054883 
C      29.33903481      18.46725410      34.15188337 
C      19.83950946      35.13420577      24.34935153 
C      32.42748395      32.59403234      28.89500418 
C      28.65696460      30.18035095      14.74722538 
C      34.50663902      16.67402489      25.25578723 
C      35.65167726      21.91072336      21.80599532 
C      17.61707184      12.94678496      25.15058238 
C      21.65600223      35.20953559      20.05554420 
C      12.61768373      17.78661129      18.69819026 
C      18.83360043      29.84883425      35.31975013 
C      33.55359082      31.37815228      23.85404849 
C      35.83815507      28.60762946      22.32824050 
C      32.15589977      30.91805222      33.09933625 
C      21.48101417      12.18061609      22.86182475 
C      33.25995434      17.79865464      19.94663953 
C      28.17382560      12.85554073      17.96750069 
C      14.35271198      29.81105454      30.54805996 
C      32.98275378      20.81014596      31.20291954 
C      18.95098566      25.66445479      13.17663076 
C      15.97088597      28.30271915      16.11013562 
C      26.27121068      11.42270542      22.31720648 
C      15.36374629      34.07293662      26.90107008 
C      14.97478715      20.74617546      32.72866280 
C      21.92288592      15.47252407      14.48091138 
C      23.15823532      29.40141861      12.58115980 
C      20.39748471      20.70032882      13.04428716 
C      21.65028529      33.11557994      15.32847451 
C      23.98719108      35.51566845      26.84640013 
C      11.87927988      18.14225923      30.14042523 
C      25.96053847      34.64030529      22.22104329 
C      28.99780255      21.13221341      11.13066037 
C      16.46525227      21.81894869      15.41278127 
C      27.80696902      16.17540041      14.42178027 
C      16.48984921      12.26338796      30.35394208 
C      29.81436621      13.77928634      31.07982900 
C      27.83537994      35.56525595      30.80536098 
C      32.44600410      29.38770568      18.15294786 
C      25.78794661      14.81882602      34.12192749 
C      12.98423325      30.08677370      20.13837503 
C      12.10069470      26.95621916      26.72918621 
C      36.15089179      19.80678318      26.84398295 
C      30.44477386      25.03769625      14.71630726 
C      18.92404885      24.51806636      35.98609047 
C      36.57904056      24.59031095      25.91517610 
C      19.83190909      19.36060512      35.99429374 
C      32.12371889      25.35539357      32.81180478 
C      25.02017205      18.82054384      11.67515623 
C      15.65707612      33.46193824      21.18816369 
C      15.25890038      25.34313411      32.17251035 
C      10.75818671      27.27033928      21.53628430 
C      22.95852482      12.32743152      16.65739378 
C      12.90982302      24.40033381      17.31738834 
C      21.54963740      12.03156250      28.11800406 
C      16.57666430      15.94846321      33.27905953 
C      13.82694706      15.29457597      21.55699717 
C      13.00351816      14.98799361      26.51166876 
C      27.00494311      33.54882859      16.01302528 
C      31.47887827      13.32940124      25.59267649 
C      18.47807317      13.38671675      18.94218125 
C      28.74677130      34.29287959      25.71500110 
C      11.99597400      22.08362805      28.98165374 
H      22.23332997      14.08260803      32.90042679 
H      21.09560711      13.65176642      34.22224841 
H      20.50842026      13.76746769      32.52573569 
H      30.77288878      33.27479590      19.02372801 
H      30.36207330      33.63253577      20.73308547 
H      30.82691803      31.97102056      20.26217255 
H      24.25435130      24.71192298      37.13262600 
H      22.66234834      24.76914354      36.31987520 
H      22.91946006      23.66629818      37.71776223 
H      23.35861881      18.13068494      37.85263495 
H      24.43282124      19.53767090      37.56351883 
H      22.78204000      19.53906250      36.89217080 
H      11.05805279      19.21961177      25.97084134 
H      10.87928505      20.19374595      24.47691581 
H       9.99056721      18.63902531      24.64231462 
H      33.49242207      15.77822870      28.66327522 
H      33.06031320      15.46127339      30.37357870 
H      31.84191900      15.21463172      29.07413083 
H      30.72127669      12.67186184      22.04821065 
H      32.11836541      12.69929209      20.91592263 
H      32.36992736      13.02850695      22.65708067 
H      31.60310088      21.13390663      15.74451809 
H      32.18440730      19.75685259      16.73673930 
H      32.09090820      19.59724742      14.94842161 
H      27.82434029      22.42209898      35.64400070 
H      29.00711098      23.59368357      34.96139252 
H      27.25056271      23.82689772      34.68198526 
H      22.00042050      29.98298871      35.16656884 
H      22.17147585      28.98403429      36.65769486 
H      23.60445967      29.78170147      35.93364952 
H      12.66086467      32.33346656      25.29390024 
H      14.23942155      32.28435423      24.43728005 
H      12.75497702      31.70557400      23.62054638 
H      17.17779741      16.77901843      15.40285420 
H      18.00046832      16.01652358      16.79234633 
H      16.27639828      15.64405746      16.45698880 
H      32.43142198      24.88930913      18.08804746 
H      34.14027797      24.71241267      18.61704067 
H      33.38892754      23.47324654      17.54918552 
H      26.95861908      33.32071391      33.18395386 
H      25.61916975      32.82956171      34.27080504 
H      27.30454411      32.89232298      34.89826377 
H      21.71449134      34.13100005      31.34400995 
H      22.32603845      34.83075093      32.87892715 
H      23.45444759      34.51307856      31.51505972 
H      16.22579526      33.67760068      18.28097150 
H      18.01126920      33.83527177      18.18014240 
H      17.02395348      33.77113992      16.68138047 
H      11.14011788      22.87937625      20.48958578 
H      10.39398210      21.30035039      20.87981050 
H       9.52386343      22.82131904      21.25681777 
H      27.34453508      12.82468527      27.47280186 
H      26.23435036      11.55696684      28.06628725 
H      26.72905427      11.58636064      26.33835393 
H      35.73206658      28.80871067      28.97582781 
H      34.20664915      28.32670017      29.79541475 
H      34.98884752      27.21671378      28.62291750 
H      28.05266737      27.10999963      35.58933004 
H      28.90618241      28.46033178      34.76677434 
H      27.15266641      28.22545406      34.51427415 
H      22.96065138      25.07230206       9.47526638 
H      23.75274381      23.48302627       9.22143660 
H      22.10886456      23.56280209       9.93085859 
H      25.80701743      25.94320471      11.12738574 
H      26.35900493      27.58127760      11.61533034 
H      27.42676780      26.53512780      10.61391925 
H      18.16808857      33.21020768      32.40572264 
H      17.30028321      34.32609593      31.29851657 
H      17.11770943      32.55153498      31.11308198 
H      30.17104484      17.89273379      34.57395467 
H      29.66850212      19.47243666      33.86947360 
H      28.52662154      18.54309564      34.88508236 
H      18.89370755      34.58761160      24.40279642 
H      19.84846492      35.90870518      25.12621219 
H      19.94644459      35.59960058      23.36222647 
H      32.29172642      32.18741743      29.90249320 
H      33.23782829      32.05775357      28.38566033 
H      32.64782022      33.66681786      28.93834247 
H      29.42761290      30.95971761      14.72947296 
H      28.79854630      29.50069615      13.89821278 
H      27.65576179      30.63047362      14.69095480 
H      34.18784434      15.64329578      25.45253819 
H      35.56749812      16.68543396      24.98076122 
H      34.33539171      17.29054592      26.14472293 
H      34.96698559      21.60297028      21.00925992 
H      35.92892911      22.96177177      21.65940034 
H      36.54978447      21.28325676      21.80809485 
H      17.14548699      12.52214009      26.04528702 
H      16.93184388      13.66168395      24.68469549 
H      17.86073743      12.14729109      24.44046519 
H      22.52240935      35.39794453      19.41042527 
H      20.95939073      36.05348751      19.99673122 
H      22.00541147      35.07077241      21.08432445 
H      13.00983384      17.99829626      17.69671283 
H      13.24817054      17.03225383      19.17904444 
H      11.58357511      17.42951852      18.63195223 
H      18.79013073      30.72494860      35.97636095 
H      17.94469756      29.22376364      35.46544832 
H      19.72623035      29.25179024      35.53230547 
H      34.08587974      30.48461330      24.20618892 
H      34.10040033      31.84252105      23.02528461 
H      33.46171565      32.09169547      24.68171852 
H      35.99937637      28.23697451      21.30924554 
H      35.06782038      29.38507013      22.30416033 
H      36.77369279      29.01427661      22.72907111 
H      31.90899123      30.25359148      33.93207247 
H      33.20880930      30.79104763      32.82206128 
H      31.96982899      31.95945104      33.38577599 
H      21.39135114      11.38142210      23.60736219 
H      20.59077327      12.82079787      22.91144369 
H      21.56771442      11.74523722      21.86019339 
H      33.20787803      17.05859477      19.13994064 
H      34.26590712      18.23471622      19.98736522 
H      33.03755094      17.31321518      20.90093173 
H      27.39771538      12.64232040      17.22229896 
H      29.05984912      12.23865837      17.77876456 
H      27.78695896      12.65876970      18.97291093 
H      13.42804077      30.39678130      30.50761730 
H      14.15104295      28.76134321      30.31011593 
H      14.78617739      29.87470542      31.55368154 
H      32.79410461      20.13585887      32.04721480 
H      33.14312622      20.22177124      30.29513071 
H      33.86910166      21.42391322      31.40379986 
H      19.01199271      24.57160032      13.22451505 
H      18.10959699      26.01838982      13.78596056 
H      18.83435282      25.99600995      12.13863328 
H      15.98130881      29.03147950      16.92540566 
H      16.22001737      28.80423620      15.16730146 
H      14.97581173      27.84604387      16.04229782 
H      26.89684900      10.54914940      22.53131244 
H      25.60712055      11.64256877      23.15945509 
H      25.66467854      11.23776609      21.42216844 
H      14.68262615      34.23232920      26.05639523 
H      14.95954076      33.29322350      27.55646681 
H      15.48068471      35.01085066      27.45474189 
H      14.60986162      21.47404602      33.46379892 
H      14.23418253      19.94808194      32.59708009 
H      15.91416809      20.30764152      33.07771924 
H      22.11572258      16.02037634      13.55059288 
H      22.86449251      15.04600258      14.85389153 
H      21.19017350      14.67845064      14.29619959 
H      22.36249985      29.80797715      13.21454438 
H      23.36044211      30.08434518      11.74791648 
H      22.86191456      28.41616948      12.19902846 
H      19.40256871      20.29021721      12.83230011 
H      20.85777088      21.06864980      12.11919568 
H      21.03238583      19.92366337      13.48074510 
H      22.63804448      33.24354656      14.86893267 
H      20.90003938      33.69535268      14.77882885 
H      21.68234648      33.43704193      16.37493683 
H      24.05695482      36.48224092      27.35706675 
H      24.94492283      35.26229639      26.37769605 
H      23.20228395      35.54634170      26.08013621 
H      11.65513466      17.44615811      30.95636509 
H      12.10164529      19.13388029      30.54670315 
H      11.01407896      18.21082702      29.46989446 
H      26.10950486      35.13745178      21.25573041 
H      25.88155731      35.38949322      23.01759583 
H      26.80967258      33.97743839      22.42802712 
H      29.90879830      21.63467624      11.46757424 
H      29.20155413      20.06954461      10.95576231 
H      28.63462993      21.59723570      10.20715251 
H      15.48268875      21.33492216      15.37216501 
H      16.64731234      22.38832432      14.49357363 
H      17.25107772      21.06391835      15.54146895 
H      28.31518981      15.85396149      15.33726933 
H      27.89825951      15.40147260      13.65077376 
H      28.24470118      17.11692620      14.06648568 
H      15.40688981      12.22392262      30.51819098 
H      16.75230406      11.68261504      29.46540357 
H      17.01352851      11.86258559      31.22942641 
H      30.78334180      13.59914517      30.59952307 
H      29.87990667      14.66185730      31.72547429 
H      29.52757808      12.89869509      31.66565212 
H      27.94550163      36.03025707      29.82174953 
H      27.04067872      36.06938588      31.36765049 
H      28.78015715      35.63100576      31.35702889 
H      32.57435431      28.82947476      17.21799486 
H      31.44555536      29.83539232      18.17165963 
H      33.21316752      30.16662165      18.22962279 
H      26.58128255      15.56931183      34.04414902 
H      25.07217841      15.11807787      34.89812873 
H      26.21697739      13.83878268      34.35935873 
H      12.77332333      29.63228066      21.11206072 
H      13.24985931      31.14239376      20.27206948 
H      12.10951200      30.00702241      19.48283397 
H      12.35388118      27.42227562      25.77267886 
H      11.17693556      26.37525516      26.62073835 
H      11.96635463      27.73444300      27.49030672 
H      36.12600829      20.25913970      25.84699171 
H      36.99542815      20.20920200      27.41555515 
H      36.26239043      18.72041415      26.74870740 
H      29.67931284      25.80885685      14.84960349 
H      31.43902574      25.47980521      14.85003805 
H      30.35574639      24.61220406      13.70931847 
H      19.70964337      23.77924596      35.79107720 
H      19.13781833      25.06553797      36.91050715 
H      17.96170040      24.00053247      36.08035832 
H      36.80834601      25.56537086      25.46915855 
H      37.48563516      24.15936750      26.35645070 
H      36.18744090      23.91837516      25.14425826 
H      19.92021242      19.81802634      36.98602153 
H      18.86044360      18.85859430      35.90879358 
H      20.63264274      18.62438306      35.84254140 
H      32.19431692      24.26235343      32.74496263 
H      32.97064663      25.75297290      33.38169842 
H      31.17819345      25.63264575      33.29185898 
H      25.95065146      19.39405030      11.61434997 
H      25.21470424      17.82879113      12.10205063 
H      24.56597166      18.72271093      10.68221082 
H      14.70946500      33.36335672      21.73120895 
H      15.69900108      34.44516856      20.70501574 
H      15.73204987      32.66947593      20.43576312 
H      15.22407691      26.12125629      32.94345260 
H      14.27453102      24.87413286      32.05731273 
H      15.99541051      24.57785044      32.44856534 
H      11.12408646      26.69781239      20.67702486 
H       9.75318273      26.92939437      21.81125114 
H      10.72156332      28.33522789      21.27914432 
H      22.47380904      11.64397200      17.36488389 
H      22.23980278      13.10202191      16.36928175 
H      23.29540009      11.77254493      15.77507632 
H      12.57779925      23.35892425      17.22510175 
H      12.16655489      25.06561822      16.86522452 
H      13.87930982      24.51340078      16.82112859 
H      22.57082806      11.92099018      27.73169471 
H      21.28137606      11.16679402      28.73523509 
H      20.84668962      12.14126880      27.28449865 
H      16.54889470      15.12341103      32.55988217 
H      17.46404757      15.86100660      33.91775229 
H      15.66876073      15.95053131      33.89350200 
H      13.28519304      16.24898948      21.50123657 
H      13.59242067      14.67732870      20.68144836 
H      13.52581680      14.76561035      22.46901618 
H      12.71178619      13.93463909      26.59557341 
H      12.78518257      15.52138811      27.44289653 
H      12.47317956      15.46172643      25.67637281 
H      27.74797361      32.74470289      16.04314383 
H      27.01382973      34.04407253      15.03557450 
H      27.23133409      34.27320035      16.80439292 
H      31.80235508      14.02396557      24.81054903 
H      32.03928996      13.52510357      26.51486237 
H      31.64204177      12.29333575      25.27496597 
H      18.39380793      12.94806390      17.94199408 
H      18.16848482      12.65098367      19.69427738 
H      17.83618115      14.27113682      19.02341892 
H      28.83149494      34.93878358      24.83276211 
H      28.83718385      34.89223037      26.62902313 
H      29.53722759      33.53678781      25.70027940 
H      11.76977506      23.15692784      28.96530094 
H      11.06822143      21.51752230      29.12549183 
H      12.69193998      21.87670707      29.80395368 
