699
Properties=species:S:1:pos:R:3 i=81 optimized=T E=-10972.8059474247 pbc="F F F" jobid=279_84-Ag-20_1-000005-PBE
Au      33.21072803      25.42216179      26.13923860 
Au      32.24870886      29.54476563      21.25959095 
Au      34.54976654      28.15911472      25.47317489 
Au      29.92107012      14.92662635      19.65105108 
Au      34.10966044      19.46031670      23.80545426 
Ag      27.02238890      23.54826121      13.21899355 
Ag      18.26562085      33.15616528      27.99014127 
Au      28.50945603      30.77016940      18.04121073 
Ag      24.94013166      21.25328565      23.18777438 
Au      26.28983619      23.24552938      24.88589609 
Au      28.20372667      25.07897332      23.65405206 
Au      23.74925872      21.61721915      29.01050059 
Au      23.40057206      27.87384561      26.96778824 
Ag      26.90703624      23.09553473      21.97675112 
Au      22.36865977      19.55242339      27.37063447 
Au      27.24422070      21.15447506      26.70748774 
Au      22.05560750      21.52238746      22.66443647 
Au      21.01030245      23.60643768      20.82472922 
Au      27.63221699      25.26736342      26.63241726 
Au      19.93764513      24.03625518      26.68122662 
Au      25.48201808      21.07813857      20.28450896 
Au      24.30266780      25.72098544      28.79479601 
Au      23.86771103      27.69007973      24.02159715 
Ag      26.21381244      27.60950083      27.64854393 
Au      20.86472072      21.89562584      28.41435551 
Ag      22.85816897      23.71982281      27.17934913 
Au      21.49329634      21.70202217      25.56743059 
Au      19.48558427      19.82190775      26.90201244 
Au      25.86501578      19.11765053      25.03169061 
Au      25.23742058      23.50119652      30.74615247 
Au      23.01087679      25.44323388      19.55654278 
Au      20.97974095      27.93349385      23.51698637 
Au      26.67420629      27.39510050      24.71828685 
Au      22.58269766      21.38227286      19.77470467 
Au      21.95631738      25.84003683      25.34459403 
Ag      27.17543782      25.43593223      29.54555960 
Au      20.14310550      19.64932399      23.97148231 
Au      25.90017843      25.11956042      20.18889648 
Au      23.51547024      19.20424547      21.55546525 
Au      22.27804237      23.91117282      30.02955837 
Au      21.04255431      17.46870336      25.80751493 
Ag      21.53046511      27.65830407      20.58401504 
Ag      24.41976525      27.43155806      21.19799338 
Au      24.55016315      23.14857683      18.46038069 
Au      28.63242315      23.13213817      28.50984725 
Au      18.58642774      21.93322827      25.10821847 
Au      26.70616554      21.22876252      29.64582529 
Au      22.41196025      30.03979104      25.10849877 
Ag      27.28793524      27.17188541      21.83382898 
Au      21.74767476      19.66088118      30.22900003 
Au      18.48130907      26.35610893      27.70850652 
Au      23.05133021      21.65601434      31.92576466 
Au      21.63615782      23.47060007      17.87868173 
Ag      17.02108547      24.22528723      26.21747368 
Au      27.47118575      22.84285291      19.03280846 
Au      23.88907960      17.19384649      26.29088922 
Au      23.23567410      17.38055189      29.27909493 
Ag      25.24550494      29.80113212      25.73144831 
Au      21.64183616      17.25864226      22.84842929 
Au      28.81666615      18.76124016      25.64540515 
Ag      22.87257083      29.79063717      22.20152353 
Ag      25.33720811      25.34521832      23.04545027 
Ag      20.06042881      25.67154384      18.90565344 
Au      29.49459076      27.12925170      25.45038775 
Au      19.29260108      24.24188708      29.57834675 
Au      17.91180744      22.10404025      27.96747073 
Au      19.99226738      28.44201901      29.46375820 
Au      23.72605087      25.80504243      31.66852890 
Au      20.93736325      26.33469043      31.22045146 
Au      26.38394060      18.99277760      22.05490131 
Au      24.64080784      19.48556029      30.86230498 
Au      20.31956197      17.61772180      28.75661071 
Au      28.90679706      24.91294709      20.74914280 
Ag      19.50798902      30.20479480      24.59128935 
Au      25.75382604      29.53600347      22.80813574 
Ag      24.97349555      27.18742000      18.22345087 
Au      28.40713496      20.79800002      20.83728557 
Au      29.12186906      27.35022841      28.39308458 
Au      30.07772094      20.88492044      27.27636043 
Au      18.12699664      23.87356748      20.28368374 
Au      17.67002397      19.63570446      20.59597996 
Au      25.64261013      27.70554519      30.56328183 
Au      28.18222967      23.24847920      31.36943359 
Au      21.93503836      30.16612197      28.08911729 
Au      21.75604718      24.09897523      32.93446258 
Au      18.63820579      27.93634101      20.08102916 
Au      16.26892439      21.93224713      21.62671330 
Au      30.52826230      25.04798136      27.20843325 
Ag      23.41570722      23.52767710      24.29126015 
Au      20.02164346      29.96791645      21.64809810 
Ag      16.53069485      19.96919575      26.43615794 
Au      26.72957618      17.01453916      26.85272462 
Au      29.99473341      25.09462915      30.08734057 
Ag      17.57281055      28.41144935      25.87529110 
Au      16.19569228      26.30429666      24.32700741 
Ag      28.56191695      29.24069870      23.45694733 
Au      27.86676657      26.96873601      19.02092554 
Ag      24.10606571      19.08687102      18.62798125 
Au      27.37959936      16.80142263      23.87499437 
Ag      26.95982046      18.80917341      19.15222982 
Ag      25.99144320      21.29692349      32.65290014 
Au      12.44777200      18.75632448      21.95070544 
Au      23.09918970      21.15408890      16.87202459 
Au      26.33605884      29.19889199      19.85985968 
Au      20.15577913      19.60589558      32.51655765 
Au      26.08242118      17.14554085      29.78199285 
Au      29.26270206      18.73128903      22.74288353 
Au      27.55155898      29.63413555      29.28810274 
Au      15.14131494      22.26763100      27.50657180 
Ag      26.07655379      20.85139836      17.25045479 
Au      24.51948220      23.68807142      33.52410739 
Au      23.66270063      25.24949200      16.45477943 
Au      17.48231131      18.01065816      28.27018213 
Au      19.05665834      30.36582666      27.47959499 
Au      23.50155946      29.47022518      19.29341717 
Ag      22.44515682      25.61374201      22.43163980 
Ag      16.03548318      20.09647334      29.54134088 
Au      27.48432260      19.08896360      31.40131113 
Ag      29.20715866      29.03852835      20.58574628 
Au      16.41159577      24.31040624      29.08287567 
Au      32.02223215      22.79090278      26.10414900 
Au      16.60424736      21.67630984      18.70433234 
Ag      24.82997255      31.55248539      20.75876117 
Au      21.93289987      31.70044278      20.25687669 
Au      20.75184353      25.41624856      16.02103910 
Au      24.16623342      31.92173493      23.86073142 
Au      20.63631548      29.66280720      18.69953168 
Au      23.16379871      15.00846245      21.54092221 
Au      30.28388606      22.60584907      19.56015397 
Au      25.18782901      22.93378540      15.50183725 
Au      18.84302612      23.66931567      17.19984772 
Ag      28.91976810      20.60442520      17.94477195 
Au      17.50363424      22.41680029      31.10776260 
Au      17.14069018      28.63401573      28.73684325 
Au      27.84720190      16.68754744      20.97056141 
Au      15.65710959      26.68104444      27.16494454 
Au      18.78098661      15.76235082      27.10725959 
Au      19.71492703      15.44957855      23.94406098 
Au      18.06195555      26.70235163      30.78410429 
Au      20.23646195      15.37122223      21.18308307 
Au      27.13450530      31.58192833      24.26874223 
Au      24.83546439      15.17038497      28.28120241 
Ag      23.97357431      23.35310786      21.39426899 
Au      20.15881164      21.12315321      16.31362953 
Au      27.96236095      22.77308001      15.97143435 
Au      31.31122203      20.52721674      21.66660440 
Au      26.90266195      31.74695974      27.56154097 
Au      25.78662038      14.88986012      25.14068070 
Au      28.68648743      16.18519781      28.78350361 
Ag      26.01528152      14.80175159      22.20519138 
Au      32.56628639      22.61889067      23.28975380 
Ag      25.66219722      30.44475333      31.36890681 
Au      22.88133379      30.83282226      30.72028258 
Ag      24.19589588      16.92665370      31.98332926 
Ag      31.35304654      17.85050515      24.67335425 
Au      17.00274497      26.02403910      18.60078592 
Au      31.63432996      22.81805700      28.84596497 
Au      29.36553042      15.97840562      25.89081085 
Au      15.53357974      29.21100843      23.96713711 
Au      16.00489118      28.98731199      21.03618365 
Ag      16.97119722      31.21644495      25.61871846 
Ag      29.43922499      24.89017811      17.86097284 
Au      30.75487028      17.98721849      27.57211116 
Ag      18.49550755      17.53644448      31.00740638 
Au      23.85339075      19.60683488      33.61565878 
Au      18.07776843      30.75193986      19.76159013 
Au      17.43825000      31.01121251      22.67255366 
Au      14.17606648      27.03515651      22.39697812 
Au      32.62519608      19.93583400      26.39409549 
Au      24.81036577      25.54059823      25.93766198 
Au      32.89443288      26.93441597      22.97864492 
Au      24.69196661      20.03962808      14.80222112 
Au      20.06214193      31.22866829      30.03262525 
Au      31.74276413      27.75273953      27.07675843 
Au      23.67615031      28.50894950      32.52549646 
Au      29.90054491      15.93547170      22.94775698 
Ag      22.46914914      16.97859451      34.42782055 
Au      13.27632513      19.54496086      28.73600279 
Au      24.17568800      27.94232688      15.57090419 
Au      15.33366208      17.55846585      31.15270755 
Au      25.76393217      25.76698423      14.61389577 
Au      28.70296273      30.60046899      32.57046598 
Au      22.65543454      30.13078697      16.69001365 
Au      21.92122336      21.69607608      34.98297375 
Au      31.32336822      28.27508360      31.38265165 
Ag      19.50649174      14.91512953      29.80290693 
Au      22.40549401      25.26152954      12.80465600 
Ag      16.05514529      15.29663377      28.36928297 
Au      25.66271004      33.76089816      29.32732092 
Au      26.66637379      14.60279737      31.23729665 
Ag      28.38005529      13.57339721      24.02117980 
Au      16.23844339      17.09682224      19.36112121 
Au      16.17755488      17.21133325      23.20360586 
Au      20.74342629      15.41830727      17.63887675 
Au      11.80445283      24.55066851      22.93288625 
Au      14.57525444      30.21458287      27.12642374 
Au      24.34567129      21.38498306      26.09400823 
Au      14.90436663      19.91031348      20.09994040 
Ag      25.44582206      31.00140494      17.89535590 
Au      28.65477866      20.41066298      14.34762348 
Au      30.14597501      27.00311156      22.50595589 
Au      31.15767838      24.94730797      24.28066906 
Au      31.85615092      24.81424717      21.43298264 
Au      20.51309288      23.81337754      23.77944896 
Ag      25.26820376      14.91998641      16.10573193 
Au      31.20585093      29.03327287      24.42489014 
Au      25.74169173      23.39615323      27.84997590 
Au      27.15907075      27.59284668      16.35738716 
Au      20.73470094      31.41149831      33.09874420 
Au      17.63331001      23.97302753      23.30304584 
Au      22.99639379      19.33406043      24.43049889 
Au      27.79165083      20.99154964      23.80844709 
Au      19.57013429      25.88662156      21.91920786 
Au      24.92027026      31.17651526      14.92360462 
Au      25.18872856      19.28127541      27.94780465 
Ag      19.03566111      26.09372944      24.82360678 
Au      20.52603733      28.11739990      26.42939930 
Au      21.36274933      26.02298386      28.27922208 
Ag      29.17057100      23.04607466      25.52543265 
Au      19.16375469      21.73135024      22.12811359 
Au      24.55533482      17.02820690      23.35880036 
Ag      22.88435567      28.07358522      29.83920872 
Ag      20.66018108      19.49075101      21.07051649 
Au      20.30635662      22.16345776      31.29459826 
Au      24.78348418      30.04324308      28.66326386 
Au      18.00798719      28.24572633      22.97169193 
Au      28.13414101      18.95955594      28.52466092 
Au      18.88591991      20.09021781      29.82951727 
Au      29.78003358      22.80307136      22.64137456 
Au      19.60211399      21.59737816      19.16230748 
Au      18.22594648      17.83131319      25.19228756 
Au      15.64355249      22.08071887      24.58235589 
Au      16.64382538      26.11114940      21.40775137 
Au      26.56902787      24.94837765      17.27643353 
Au      28.05808245      29.46803647      26.30624488 
Au      17.19984768      19.90269295      23.49490972 
Ag      18.82461997      17.64497488      22.31659893 
Ag      30.70391161      20.69137461      24.44484647 
Ag      22.11724777      27.43634371      17.61156395 
Au      21.15864647      19.31653863      18.25375127 
Au      22.21722667      17.17388575      19.81199751 
Au      21.86851093      15.38501454      27.56707498 
Au      18.96617995      24.42163384      32.47750745 
Au      26.45449323      25.45799049      32.46148279 
Au      14.75418957      24.17351100      22.76303461 
Au      29.62107972      20.69159982      30.19370936 
Au      23.72314906      32.03076394      26.71272938 
Au      22.56118430      15.15643096      24.80158245 
Ag      25.02407281      16.93951307      20.39611274 
Au      28.42230752      27.78361705      31.20484810 
Au      19.29780077      17.47980924      19.49075045 
Au      27.67598036      31.22923774      21.54242090 
Au      15.25532534      24.01404788      19.90199615 
Au      21.30960562      17.00869661      31.43300335 
Au      21.08680271      32.12496429      23.04649087 
Au      14.17457662      24.35501348      25.49151451 
Au      22.43666859      23.12515898      14.85909399 
Au      30.68526644      26.84955267      19.59013434 
Au      18.31023543      19.47389635      17.68201712 
Au      22.79636251      18.37406026      16.12922944 
Au      15.65516942      17.18520449      26.07449748 
Au      30.20813323      29.91434250      28.15201896 
Au      29.80090220      18.30671009      19.86959809 
Ag      13.63757390      21.45684605      22.55811648 
Ag      30.34664667      17.70402859      30.74041851 
Au      26.83070879      16.06960346      18.36415087 
Au      20.67560355      32.24919518      26.28416545 
Au      19.16597446      27.91503824      17.18775275 
Au      25.78465306      18.05134293      16.59212807 
Au      14.55154996      19.38492323      24.41875788 
Au      19.05417444      33.43515347      20.79242311 
Ag      24.33518466      22.10434382      12.76692358 
Au      34.71965009      22.52724494      27.48743478 
Au      29.22688873      32.86524563      29.30526021 
Au      19.21005658      31.16223473      16.50235736 
Au      23.64330525      14.99232789      18.78052432 
Ag      14.11157975      26.98435453      19.40319439 
Au      20.90511995      26.73936641      34.42813363 
Au      19.59907795      28.52289888      32.30614719 
S      20.67514826      15.73205674      33.42406600 
S      28.46474554      32.53582878      19.62601118 
S      23.91841508      22.76989225      35.71150822 
S      24.24266033      18.19019794      35.53605352 
S      12.41256538      18.18565663      24.23290623 
S      32.31999904      17.35690709      29.32805401 
S      31.46787746      14.84612557      21.43705213 
S      29.80198767      19.25735439      16.05163811 
S      28.28588785      21.93818035      33.43970907 
S      22.97923943      27.85617964      34.77193436 
S      13.50564697      30.07974034      25.03404235 
S      16.38323824      18.03366297      17.17053692 
S      32.65653037      23.22250879      19.74676434 
S      26.61318243      30.81718623      33.62948897 
S      22.84190542      32.36569549      32.64913549 
S      17.14476983      31.42433576      17.61040899 
S      11.28696693      22.26357563      22.79564998 
S      25.04373035      13.24891301      26.78400909 
S      33.79931786      29.03379084      27.52782052 
S      28.43808681      26.52251907      33.35139011 
S      24.02008673      24.18009614      11.47035808 
S      27.48057628      26.00401856      12.92668493 
S      19.17200605      33.46467920      30.23719032 
S      28.86023196      17.53719790      32.68082174 
S      21.22790454      33.96666103      24.65306252 
S      31.03841801      32.18082665      27.96000846 
S      28.88316696      29.29968837      16.21998079 
S      33.64158636      17.15800043      23.95245506 
S      34.82331673      21.69427624      23.50392649 
S      18.95496391      13.82378502      25.59626439 
S      20.82248578      33.66178447      19.23983438 
S      12.58675781      19.34795862      19.67439644 
S      18.68247014      30.36068209      33.58901206 
S      31.92571296      30.96418665      23.13624018 
S      35.26171839      27.28874983      23.39844186 
S      30.94049218      30.56915182      31.80389634 
S      23.15318638      13.30810037      23.31028194 
S      32.05152694      19.23039635      19.70994172 
S      28.63434770      14.53826995      17.71301167 
S      15.52719728      30.40737589      29.27439151 
S      31.62053718      21.79937820      31.06363433 
S      20.70993604      26.53693083      13.84658430 
S      17.14925008      26.86657957      16.30044320 
S      27.43791481      12.78653249      21.91665470 
S      16.70726528      33.62756826      26.18977161 
S      15.23276477      21.67156618      31.40722384 
S      21.13809414      16.66770528      15.65248063 
S      24.74189809      29.27294566      13.54951049 
S      20.26687577      22.14715900      14.11334806 
S      21.12314313      31.25488963      15.13342048 
S      23.68263051      34.05493179      28.09121179 
S      13.52005946      17.38541031      29.64943770 
S      24.32514680      33.61283881      22.08556560 
S      27.67762312      21.32927533      12.40496715 
S      16.53290828      23.04361449      16.67638069 
S      26.05067921      16.61153344      14.58700118 
S      17.15846675      14.39908242      30.35460377 
S      28.52182051      14.02809455      29.89438066 
S      27.56925708      33.76015531      30.72501045 
S      32.69621998      28.24729535      19.33366822 
S      25.02348287      14.77812780      32.91794911 
S      14.32814474      29.42525618      19.32848840 
S      13.36448946      25.80019776      27.28401570 
S      34.61125490      20.20064245      27.83374181 
S      30.32816008      23.56589943      15.95854692 
S      18.77243929      25.68632859      34.56847848 
S      35.29370427      24.79765637      27.21688471 
S      19.82749927      20.59009712      34.71549155 
S      32.01373140      26.04460487      31.09408799 
S      23.93350827      19.62827533      12.52895833 
S      17.24167664      33.41736330      22.30102890 
S      15.70334696      26.09471602      30.62734385 
S      11.80231696      26.91722460      22.92611514 
S      24.39573633      13.12407544      17.46086595 
S      13.08557017      24.77978999      19.10421275 
S      21.63634145      13.71075211      29.31236246 
S      16.89341664      17.59151201      32.91630066 
S      15.84353576      15.75925286      21.29462583 
S      14.55076590      15.05234349      26.39368577 
S      25.22741759      32.99651043      16.39171953 
S      29.77225751      13.58455664      26.04162558 
S      20.09874612      13.81882999      19.28167962 
S      27.18994133      33.47397691      25.78322983 
S      12.78444247      21.63313583      27.79026520 
C      21.30707694      14.01884785      33.23841795 
C      30.22469577      32.95386711      19.94135792 
C      23.35812038      24.20044233      36.71629055 
C      23.55501050      19.02886681      37.01729246 
C      11.10698774      19.20933349      25.01364188 
C      32.53921095      15.54148663      29.16410376 
C      31.53895627      13.04080018      21.76935355 
C      31.51956009      19.88100248      15.87236443 
C      28.05497796      23.02350889      34.89705188 
C      22.59771893      29.37793034      35.71775155 
C      13.35331270      31.80975132      24.43986414 
C      17.02774522      16.67462985      16.11818678 
C      33.16256463      24.23939116      18.31164949 
C      26.44250631      32.59161575      34.06066916 
C      22.51419303      34.04087626      31.98149054 
C      16.89398455      33.24261602      17.57429519 
C      10.53167100      22.15634262      21.12410987 
C      26.48604735      12.25441135      27.31533133 
C      34.72452554      28.16326653      28.84827808 
C      27.83809143      27.59765445      34.70638904 
C      23.07799673      23.64085654       9.98624562 
C      26.71707902      26.67387230      11.40178520 
C      17.69330773      33.35049385      31.32129589 
C      29.65745074      18.50042379      34.02468727 
C      19.76856403      35.05618765      24.46577219 
C      32.54114439      32.34550495      28.99465263 
C      28.60359196      30.29503518      14.70779409 
C      34.48003973      16.56423160      25.47394673 
C      35.54212375      21.72497836      21.81545874 
C      17.27720471      13.33492338      25.05272686 
C      21.74852911      35.15627702      19.76229196 
C      12.56427966      17.80390670      18.68452986 
C      18.72763450      29.87012862      35.35750543 
C      33.57148940      31.48982887      23.75333160 
C      35.82242892      28.69007573      22.35537269 
C      31.92282616      30.87412362      33.32953791 
C      21.66109500      12.30352788      22.96437893 
C      33.20849677      17.91912490      20.24939885 
C      28.06065443      12.81716199      17.99252437 
C      14.30988112      29.65456074      30.42280988 
C      33.00649227      20.60620747      31.15223757 
C      19.17696149      25.87104875      13.08939085 
C      15.91300701      28.19822428      16.06063732 
C      26.37418924      11.34674747      22.33414057 
C      15.14301864      33.96811288      27.09486019 
C      15.16385686      20.86674694      33.05307942 
C      21.90833641      15.49434842      14.47549255 
C      23.20629320      29.44557703      12.56604232 
C      20.59322628      20.76970990      12.95238292 
C      21.54874810      33.03942421      15.19890116 
C      24.09864181      35.40908889      26.92679019 
C      12.06120989      17.23832978      30.76086249 
C      25.89147851      34.54931148      22.24866629 
C      29.10988419      21.64612885      11.29643187 
C      16.55699101      21.86751978      15.27349495 
C      27.84344054      16.29805225      14.36015220 
C      17.11213114      12.56980481      30.15042479 
C      29.85322634      13.85593127      31.14695932 
C      27.99240496      35.54619414      30.84113454 
C      32.46062513      29.37781429      17.90697581 
C      26.04620283      15.16056189      34.39594585 
C      12.87938804      30.11573223      20.21983390 
C      12.19913491      27.00820811      26.56011460 
C      36.13025725      19.59497319      27.00137673 
C      30.52482663      24.70346456      14.53410694 
C      18.93422153      24.45826501      35.92339255 
C      36.54836439      24.72209045      25.87861936 
C      19.80195306      19.24726533      35.96212057 
C      32.03193148      25.36325805      32.79638302 
C      25.24620168      18.77221608      11.58421682 
C      15.73288375      33.59710342      21.27208409 
C      15.27127243      25.36057858      32.24740362 
C      10.79667234      27.27164001      21.43006453 
C      22.91803481      12.41618921      16.63162840 
C      13.04171073      24.46616216      17.29583616 
C      21.19461495      12.17620948      28.41027650 
C      16.81749857      15.91831514      33.66618125 
C      14.05653887      15.35186966      21.27186101 
C      12.78370127      15.30584538      26.79186847 
C      26.89254599      33.67948722      16.02613964 
C      31.50859322      13.33323750      25.50193978 
C      18.31352006      13.52143173      18.97865833 
C      28.91848145      34.07740572      25.74967580 
C      12.21418236      22.63542820      29.21751144 
H      22.37660880      14.00379595      33.00350248 
H      21.12740690      13.49867951      34.18668976 
H      20.74582786      13.53237456      32.43156602 
H      30.64177187      33.39501785      19.02896009 
H      30.24443032      33.68977909      20.75383837 
H      30.80467235      32.07185205      20.23657204 
H      24.24618849      24.78917619      36.97495632 
H      22.65465399      24.83106878      36.16054329 
H      22.88728292      23.81725759      37.62874216 
H      23.38618349      18.27177121      37.79158367 
H      24.29648546      19.75884547      37.36211457 
H      22.62182841      19.55583058      36.79037636 
H      11.29630741      19.21057454      26.09448525 
H      11.11623226      20.23582670      24.63220996 
H      10.13959510      18.73963045      24.80102741 
H      33.32106135      15.36277641      28.41611726 
H      32.86190294      15.13845166      30.13109262 
H      31.61035679      15.05715978      28.84424933 
H      30.53943442      12.62767635      21.94579126 
H      31.99720939      12.55705930      20.89919509 
H      32.17276475      12.88613033      22.64970661 
H      31.53189843      20.97415356      15.78826804 
H      32.07247431      19.57241035      16.76848481 
H      31.96630995      19.42727241      14.98086110 
H      27.89252987      22.38108888      35.77075627 
H      28.96235469      23.62273351      35.03532297 
H      27.19283865      23.68859894      34.76198244 
H      21.90779684      30.03193528      35.16632764 
H      22.16892647      29.09624892      36.68629221 
H      23.54718333      29.90501211      35.87269741 
H      12.60933394      32.32386536      25.05902515 
H      14.31456864      32.33410917      24.48810901 
H      13.00321077      31.76684119      23.40161814 
H      17.23575712      17.09531293      15.12720192 
H      17.95002925      16.25020285      16.53130653 
H      16.25529874      15.90112837      16.03868271 
H      32.41377637      25.00877127      18.08580953 
H      34.11920331      24.71497516      18.55742884 
H      33.27625513      23.57429500      17.44775844 
H      26.78838199      33.23104272      33.24216096 
H      25.37828741      32.77687692      34.25017400 
H      27.02651057      32.78788090      34.96685690 
H      21.64362732      34.04219480      31.31568353 
H      22.33654598      34.71023962      32.83145685 
H      23.40913946      34.35824815      31.43062609 
H      15.97072738      33.45924490      18.12461448 
H      17.73484826      33.77037646      18.03728245 
H      16.77860008      33.55348110      16.52972702 
H      11.17211748      22.62658020      20.37024088 
H      10.40270382      21.09341616      20.88713602 
H       9.55599096      22.65410636      21.14863120 
H      27.36696540      12.87365497      27.50632868 
H      26.20714874      11.72498302      28.23432016 
H      26.70987848      11.53149137      26.52118988 
H      35.71259126      28.62980761      28.93605855 
H      34.15979677      28.29241644      29.78059746 
H      34.83323259      27.09665484      28.62569341 
H      27.76277673      26.98157588      35.61052211 
H      28.56509307      28.40438388      34.85945948 
H      26.86152461      28.03318055      34.47297523 
H      22.77204351      24.52581625       9.41686485 
H      23.74790884      23.02328204       9.37646793 
H      22.19585041      23.05615372      10.26327298 
H      25.89611973      26.03869174      11.05367616 
H      26.34739026      27.68510286      11.61052375 
H      27.50652009      26.71530630      10.64094367 
H      18.02466273      33.14801840      32.34677786 
H      17.17792940      34.31741877      31.27888471 
H      17.01662107      32.55614446      30.98990891 
H      30.52777606      17.93700785      34.38020041 
H      29.96156168      19.49409043      33.68005455 
H      28.93074382      18.61281420      34.83798828 
H      18.82941160      34.49551169      24.45474564 
H      19.76376059      35.75479108      25.31107236 
H      19.87955605      35.60669113      23.52368019 
H      32.35767169      31.97902875      30.00986653 
H      33.33001289      31.75114005      28.51747597 
H      32.82319619      33.40453727      29.01591038 
H      29.36369388      31.08315804      14.65925082 
H      28.71492769      29.61602805      13.85367510 
H      27.59578110      30.73273819      14.69402588 
H      34.20753387      15.50899001      25.59770074 
H      35.56483048      16.64700990      25.34524413 
H      34.15604570      17.13128110      26.35350060 
H      34.82263898      21.37002966      21.07068199 
H      35.80645535      22.76589157      21.59364426 
H      36.44310124      21.10137992      21.80803710 
H      16.74215349      12.89409062      25.90191964 
H      16.71505784      14.19464309      24.67324700 
H      17.39289143      12.58929077      24.25698055 
H      22.62637755      35.23365554      19.10904984 
H      21.10569168      36.03321598      19.62733193 
H      22.07953745      35.07546436      20.80261319 
H      12.77004015      18.08570391      17.64508082 
H      13.33189071      17.09827141      19.02063326 
H      11.56695190      17.35683127      18.76288741 
H      18.67324140      30.77502662      35.97300852 
H      17.84954866      29.23928859      35.53991431 
H      19.63205030      29.30003618      35.59275462 
H      34.18929493      30.62921418      24.03902811 
H      34.07184459      32.08940412      22.98466786 
H      33.38770553      32.10602548      24.64238357 
H      36.03081857      28.28558569      21.35773653 
H      35.05220752      29.46381692      22.27012008 
H      36.73861432      29.10659563      22.78889734 
H      31.65942943      30.16939326      34.12318561 
H      32.98416904      30.77014010      33.07617792 
H      31.71899844      31.89922765      33.65958565 
H      21.45693960      11.69049620      23.85015579 
H      20.79849923      12.94816732      22.75179014 
H      21.87305226      11.66392591      22.09984085 
H      33.31390108      17.19758841      19.43057754 
H      34.17581062      18.38985859      20.46368191 
H      32.84982560      17.40324417      21.14455487 
H      27.29511379      12.59053147      17.24077833 
H      28.92221945      12.15179327      17.86483045 
H      27.64269613      12.69994508      18.99886504 
H      13.41063688      30.28008484      30.44103596 
H      14.06276079      28.63073944      30.12402659 
H      14.77491371      29.63987665      31.41609311 
H      32.83818272      19.95806888      32.02121468 
H      33.08637075      19.99640894      30.24818174 
H      33.93286198      21.17759111      31.28649664 
H      19.17505828      24.77561748      13.10915815 
H      18.33116997      26.25426052      13.67425856 
H      19.11902937      26.23297873      12.05652317 
H      15.89515812      28.90086372      16.89860862 
H      16.16951442      28.73644046      15.14025332 
H      14.92783411      27.72744437      15.95418226 
H      27.00359255      10.52251200      22.68766587 
H      25.63232247      11.60675428      23.09680411 
H      25.85222657      11.04163128      21.41918105 
H      14.34528097      34.11887616      26.35768804 
H      14.86981234      33.13855073      27.75629924 
H      15.26843213      34.88554659      27.68082416 
H      15.02463179      21.64434388      33.81328071 
H      14.30805266      20.18088283      33.06220044 
H      16.07431850      20.29899153      33.26592479 
H      22.12290592      16.04998017      13.55475474 
H      22.84525822      15.07971403      14.87211569 
H      21.19699526      14.68704307      14.26633639 
H      22.37264443      29.80461087      13.17918799 
H      23.40327733      30.14967782      11.74931935 
H      22.96779402      28.45426274      12.15942997 
H      19.63454630      20.28554263      12.73053142 
H      21.02361990      21.17881122      12.03066067 
H      21.28430864      20.03730627      13.38147377 
H      22.54184615      33.16159688      14.74848619 
H      20.79874466      33.58840355      14.61816450 
H      21.56425627      33.40308520      16.23150708 
H      24.13760976      36.34844882      27.48997920 
H      25.05730705      35.21925613      26.43136268 
H      23.29466489      35.44736547      26.18077449 
H      12.14652523      16.28782376      31.29955128 
H      12.01712201      18.06751987      31.47253697 
H      11.16010343      17.23226618      30.13684811 
H      26.02118875      35.14673782      21.33839862 
H      25.81576841      35.20676205      23.12241758 
H      26.74650191      33.87293746      22.37305888 
H      29.87320297      22.25451614      11.79056868 
H      29.54197575      20.68543444      10.99394736 
H      28.73489427      22.17601239      10.41302520 
H      15.57026166      21.39429433      15.21005735 
H      16.76459871      22.43634007      14.35956048 
H      17.33097214      21.10292454      15.41716190 
H      28.31893274      15.96161660      15.28740356 
H      27.95164048      15.52739372      13.58781979 
H      28.31190747      17.23228352      14.02581077 
H      16.06835645      12.23828631      30.20062490 
H      17.54573245      12.26343404      29.19326377 
H      17.67898508      12.11129488      30.96928591 
H      30.79044932      13.65591762      30.61566256 
H      29.95047567      14.76283475      31.75398145 
H      29.60508007      13.00145836      31.78680213 
H      28.08296498      36.00024266      29.85051991 
H      27.20050740      36.04629448      31.41041116 
H      28.94459427      35.62904050      31.37751755 
H      32.56051507      28.78035686      16.99299746 
H      31.47185213      29.84926311      17.92230241 
H      33.24623312      30.14144079      17.93905654 
H      26.74902876      15.97474820      34.18910026 
H      25.36862903      15.45653796      35.20561446 
H      26.59518917      14.25579670      34.67944017 
H      12.75898826      29.64775897      21.20232911 
H      13.04222766      31.19291969      20.34540966 
H      11.98095058      29.95210252      19.61315437 
H      12.58262879      27.43202991      25.62811565 
H      11.25105215      26.49437833      26.36173131 
H      12.04600715      27.81270950      27.29001719 
H      36.13424423      19.86021494      25.93815331 
H      36.99922799      20.03217569      27.50563278 
H      36.15290101      18.50443375      27.11108602 
H      29.77697880      25.50237670      14.54387950 
H      31.52839717      25.14191712      14.59653468 
H      30.43268625      24.13517338      13.60098764 
H      19.78795003      23.79056907      35.76077504 
H      19.05089404      25.00187685      36.86788446 
H      18.01117536      23.86686678      35.94541803 
H      36.73119242      25.74683437      25.53395351 
H      37.46518387      24.29528258      26.30116261 
H      36.19777373      24.10570881      25.04447784 
H      19.81147461      19.69322169      36.96334824 
H      18.86946355      18.68928940      35.81295476 
H      20.65357203      18.56449166      35.84390798 
H      32.14250938      24.27536316      32.70479119 
H      32.89117498      25.78767988      33.32804678 
H      31.10097973      25.60048899      33.32323355 
H      26.14505740      19.39127901      11.49990917 
H      25.48535814      17.82970045      12.09202734 
H      24.83560902      18.56771895      10.58741264 
H      14.87081158      33.52820454      21.94657525 
H      15.74942217      34.58334325      20.79457285 
H      15.67561622      32.80719832      20.51584204 
H      15.20337834      26.17264178      32.98041310 
H      14.30204371      24.85940278      32.14060542 
H      16.02784103      24.63075480      32.56072859 
H      11.20791151      26.77602078      20.54376343 
H       9.77777046      26.91528049      21.61950393 
H      10.78232200      28.35700254      21.28131773 
H      22.40119930      11.77599328      17.35598013 
H      22.22842505      13.19734249      16.29489100 
H      23.25719196      11.81683236      15.77895646 
H      12.76552596      23.41632750      17.14122111 
H      12.28136287      25.11778377      16.85013670 
H      14.01720308      24.65107661      16.83422576 
H      22.08466289      11.82505029      27.87387697 
H      20.88994573      11.42671265      29.15065384 
H      20.38091965      12.34803489      27.69652443 
H      16.75625627      15.14556066      32.89180799 
H      17.73941448      15.78236550      34.24423213 
H      15.94471559      15.87047695      34.32675243 
H      13.43796537      16.25920560      21.30983507 
H      13.83832453      14.77721293      20.36441543 
H      13.85215224      14.73842435      22.15776942 
H      12.34164730      14.31387837      26.94763338 
H      12.66403136      15.91132520      27.69596846 
H      12.30109301      15.80113097      25.94063684 
H      27.66310473      32.90169086      16.05090889 
H      26.87480956      34.16577003      15.04463245 
H      27.11278971      34.42031899      16.80420544 
H      31.77949929      14.02948272      24.70140222 
H      32.15965153      13.50059086      26.36835559 
H      31.62189920      12.29933121      25.15528658 
H      18.20817929      12.99914458      18.02102615 
H      17.94260388      12.88634677      19.79180091 
H      17.74621887      14.45927539      18.96546289 
H      29.01908165      34.74855316      24.88819088 
H      29.11420712      34.62653610      26.67892196 
H      29.63246932      33.25318859      25.66257217 
H      12.19973772      23.68225977      28.88779855 
H      11.20237385      22.30864604      29.48264326 
H      12.88998208      22.52110231      30.07262677 
