699
Properties=species:S:1:pos:R:3 i=75 optimized=T E=-11290.3547101218 pbc="F F F" jobid=279_84-Ag-50_2-000003-PBE
Ag      33.21880429      25.35564484      26.02091414 
Ag      31.88474774      29.30370894      21.62350889 
Ag      34.54045172      28.04015120      25.53246892 
Au      29.92785658      14.77533425      19.81763914 
Ag      33.65632865      19.48592221      23.65891283 
Ag      27.04893940      23.46714324      13.25634202 
Au      18.15878744      33.25922816      28.17070314 
Au      28.50667865      30.71582071      18.08677488 
Ag      24.92095123      21.18223861      23.24419039 
Au      26.26539286      23.20162415      24.90731349 
Au      28.18700626      25.05105533      23.59859800 
Au      23.80946536      21.66727535      28.99623775 
Au      23.34910759      27.86388054      26.97884660 
Ag      26.88839803      23.02771691      21.99391492 
Au      22.43632267      19.57003688      27.37877824 
Ag      27.23501862      21.12819519      26.70939952 
Ag      22.05429343      21.46215283      22.72383864 
Au      21.02039529      23.56877854      20.83993819 
Ag      27.67699850      25.27379158      26.54186961 
Ag      19.96885375      24.01590273      26.68341596 
Ag      25.49849597      21.06574792      20.34845179 
Ag      24.30580251      25.75949501      28.79969592 
Au      23.86152445      27.67583748      24.04652127 
Au      26.23436179      27.56431334      27.56062821 
Ag      20.95134625      21.90705868      28.43612595 
Ag      22.87109596      23.72580762      27.19033451 
Ag      21.49086511      21.69022787      25.58863762 
Au      19.55585335      19.85707754      26.84773531 
Ag      25.83515552      19.09097418      25.08831967 
Ag      25.22805746      23.62557900      30.72406778 
Au      22.99015408      25.33070712      19.53586463 
Ag      20.96753738      27.90609977      23.53053464 
Au      26.71263897      27.36945460      24.67405133 
Au      22.59828079      21.33537990      19.84881119 
Au      21.92660839      25.81875323      25.35475807 
Ag      27.19448859      25.49632435      29.43187578 
Ag      20.13126602      19.66275630      24.00436406 
Ag      25.88711270      25.05599986      20.13330703 
Ag      23.52553588      19.17337697      21.63959915 
Au      22.33598188      23.95247518      30.08804492 
Au      21.08748402      17.47449158      25.84170512 
Au      21.54595145      27.63960579      20.64510334 
Au      24.41090404      27.41066535      21.21072967 
Ag      24.52254093      23.09704147      18.46184939 
Au      28.65517201      23.20338594      28.44035865 
Au      18.61517744      21.94206958      25.08977116 
Au      26.73236989      21.31132517      29.59229841 
Au      22.40689641      30.06953883      25.12157014 
Ag      27.22406618      27.14109339      21.77885830 
Au      21.86041766      19.74023932      30.25051270 
Ag      18.47364365      26.35715813      27.72222581 
Ag      23.18515286      21.81156790      31.93370623 
Ag      21.55086099      23.41389426      17.88100027 
Ag      17.06447620      24.28003178      26.18731062 
Ag      27.45406469      22.78153459      19.05532459 
Ag      23.90854933      17.16279806      26.31129543 
Ag      23.27898591      17.43208562      29.24054047 
Au      25.22166509      29.77137921      25.71663861 
Ag      21.58760165      17.30198580      22.90974281 
Au      28.76286869      18.77710859      25.66665861 
Ag      22.85133952      29.79750548      22.24307230 
Au      25.34118432      25.30822857      23.03776397 
Ag      20.05646841      25.65631633      18.93898276 
Au      29.58898609      27.11536061      25.34831818 
Au      19.41342613      24.24925361      29.55263730 
Ag      17.99903489      22.19198814      27.92600733 
Ag      19.97674382      28.36946010      29.33739210 
Ag      23.75315901      25.92329309      31.63072889 
Ag      20.92578882      26.32567631      31.13532671 
Au      26.36250998      18.92685093      22.15653427 
Au      24.67730648      19.54129690      30.86433800 
Au      20.39211510      17.67939793      28.71084126 
Au      28.82517582      24.84780695      20.74424577 
Au      19.57327078      30.19088410      24.60975719 
Ag      25.77143406      29.53981304      22.80019192 
Ag      24.90519363      27.12438567      18.26638789 
Au      28.40597738      20.74450567      20.88775930 
Ag      29.13952924      27.38490652      28.21673379 
Ag      30.08450146      20.91497757      27.31731764 
Au      18.14969756      23.90547699      20.29020003 
Au      17.69917472      19.61845292      20.66875982 
Ag      25.69535061      27.74697704      30.45236549 
Au      28.12898623      23.44153425      31.24007612 
Ag      21.89808342      30.18120397      28.02587553 
Ag      21.78717818      24.17175153      32.92569557 
Ag      18.67445385      27.96840052      20.11240093 
Au      16.29167059      21.97647827      21.63093181 
Au      30.56769978      25.04131647      27.14700748 
Ag      23.41466985      23.50326491      24.32044777 
Ag      20.05167101      30.03638273      21.66067591 
Ag      16.61164574      20.07395087      26.36637721 
Au      26.71254925      17.02926142      26.92285758 
Ag      30.05960730      25.25923588      30.02179670 
Ag      17.60865780      28.40212426      25.87961561 
Au      16.21427201      26.32632457      24.30508262 
Ag      28.57142704      29.21980165      23.35117850 
Ag      27.81272526      26.88402746      18.95074483 
Au      24.10636883      19.10047795      18.70360531 
Ag      27.29861451      16.77819257      24.00697669 
Au      26.94149847      18.79434392      19.24940800 
Au      25.99580241      21.44439847      32.59688820 
Au      12.42770986      18.87172555      21.97978984 
Au      23.03096008      21.12788967      16.91720852 
Au      26.29519714      29.17905251      19.83144297 
Au      21.12635030      19.89965046      32.88228553 
Ag      26.06764372      17.23115739      29.79658575 
Ag      29.26149101      18.61653987      22.76646604 
Au      27.67765757      29.65063534      29.19813847 
Ag      15.19333299      22.39145184      27.42825304 
Au      26.05071178      20.82793206      17.29998149 
Ag      24.55680897      23.85124383      33.51541400 
Au      23.57588762      25.13947409      16.56918808 
Au      17.54842790      17.98414273      28.11177583 
Ag      19.04289938      30.48023587      27.48925520 
Ag      23.47905995      29.47620701      19.37113606 
Au      22.41760332      25.57136305      22.46656111 
Ag      16.18635441      20.13402549      29.39936851 
Ag      27.47120063      19.17448977      31.43713155 
Au      29.10010494      28.94201627      20.53225298 
Ag      16.50324388      24.52023044      28.99830722 
Ag      31.98795485      22.74862790      26.05634845 
Ag      16.61773689      21.66958965      18.76485361 
Ag      24.87458021      31.56037244      20.79475874 
Ag      21.97044831      31.80223229      20.34544879 
Ag      20.61702168      25.45966182      16.06920963 
Ag      24.30006545      31.86389749      23.85923240 
Au      20.67549900      29.71040883      18.84119005 
Au      23.07906556      15.09123381      21.62671674 
Au      30.36281765      22.44849505      19.71649240 
Ag      25.05474885      22.85713910      15.53168106 
Au      18.68632506      23.72330826      17.32381906 
Ag      28.93177882      20.51753998      18.01263201 
Au      17.56868519      22.52197849      30.83325978 
Au      17.14772374      28.68179211      28.69441246 
Au      27.85381266      16.64232520      21.16150975 
Ag      15.58521199      26.77799931      27.11725501 
Ag      18.97746605      15.68470923      27.06725768 
Au      19.52946371      15.50203698      23.99728297 
Ag      18.01770216      26.71888184      30.69995466 
Ag      20.17573755      15.39179587      21.21675091 
Au      27.20807113      31.53037100      24.27503492 
Au      24.91360620      15.18652196      28.25504058 
Au      23.98308240      23.28326458      21.42055454 
Au      20.09672256      21.23998649      16.40841148 
Au      27.86465005      22.62772304      16.06301968 
Au      31.33945493      20.33973023      21.71994283 
Ag      26.83439944      31.78874376      27.50166387 
Ag      25.61231603      14.87534973      25.25966374 
Ag      28.72464461      16.26399399      28.93977685 
Ag      25.95205448      14.81220729      22.31550160 
Au      32.55950000      22.56245233      23.27842086 
Au      25.64705340      30.51156675      31.19881436 
Ag      22.89182958      30.91132050      30.65828980 
Ag      24.13317463      17.00789639      31.97443361 
Ag      31.29840609      17.81410923      24.76197404 
Ag      17.01645238      26.08705012      18.54949255 
Au      31.60212273      22.99625558      28.82055651 
Au      29.32471777      16.02549602      25.97696203 
Au      15.55781162      29.16840655      23.93555419 
Ag      16.06870176      28.96892341      20.98425736 
Au      17.03092330      31.16994730      25.48232274 
Au      29.42757472      24.72389068      18.02226942 
Au      30.70058351      18.05181055      27.61112768 
Au      18.47452565      17.55415136      30.80763973 
Ag      24.02030570      19.70005085      33.65001599 
Ag      18.09007115      30.77836292      19.68141482 
Au      17.47712008      30.98827122      22.56124408 
Au      14.21147110      27.05130104      22.29703264 
Au      32.63625853      19.96344641      26.44629024 
Ag      24.81119206      25.53895585      25.94748000 
Ag      32.76640244      26.89617443      23.33135291 
Au      24.68138170      19.94724683      14.94550160 
Au      20.10969386      31.07488371      30.06449297 
Au      31.81643778      27.67748271      27.03704198 
Ag      23.80374155      28.65731946      32.46281254 
Ag      29.80842479      15.79217826      23.10373198 
Au      22.69407317      17.11630579      34.60584893 
Ag      14.00089402      19.36566739      27.67827698 
Au      23.98625906      27.85134957      15.55173238 
Ag      15.45393067      17.42589687      30.54195269 
Au      25.62965307      25.63604520      14.67830973 
Ag      28.51555150      30.53358597      31.94611157 
Ag      22.63104672      30.13367235      16.70781620 
Ag      22.17156083      21.87474001      35.05007970 
Au      31.41094380      28.30646180      31.40195454 
Ag      19.66538581      15.02300894      29.83673018 
Ag      22.81085689      25.54530511      13.68262139 
Ag      16.20623402      15.11435844      27.96212475 
Au      25.42679288      33.68094532      29.32574903 
Ag      26.66342735      14.55480977      30.76305310 
Au      28.34209614      13.30094167      23.97956261 
Au      16.17469000      17.12487859      19.39953398 
Ag      16.07379726      17.27256045      23.27186413 
Au      20.58548981      15.38053727      17.60709155 
Ag      12.02251850      24.75382019      23.20064335 
Au      14.60738683      30.25753338      27.05910542 
Ag      24.33779046      21.37392773      26.11719306 
Au      14.94680497      19.86522345      20.29002618 
Au      25.42458220      31.10465647      18.04963183 
Au      28.77638477      20.36263773      14.40948555 
Au      30.10826912      26.97490727      22.45981382 
Au      31.05044382      24.81754219      24.22956978 
Ag      31.74827361      24.74177304      21.46991040 
Ag      20.53034387      23.77655923      23.80380105 
Ag      25.28684684      14.92772544      16.28050670 
Au      30.84827345      29.61267860      24.98854323 
Au      25.74872817      23.44533647      27.80552183 
Au      26.90999888      27.65863948      16.37630202 
Ag      20.72811282      31.32709510      33.00547776 
Au      17.70888210      24.00275631      23.28062596 
Ag      22.98158365      19.32273820      24.49643595 
Au      27.79094892      20.89017064      23.82314063 
Ag      19.59108697      25.88970045      21.92253878 
Au      24.85759739      31.05214570      14.91076504 
Ag      25.21428772      19.31165358      27.96899142 
Ag      19.04332544      26.09235751      24.82312566 
Au      20.48920168      28.13351362      26.44918869 
Au      21.39631551      26.01750888      28.24989900 
Au      29.11248804      22.97824712      25.50172416 
Au      19.20080955      21.72598020      22.16890885 
Ag      24.50025791      17.03104480      23.43953447 
Ag      22.85856875      28.10966180      29.84585015 
Ag      20.64736290      19.45663709      21.11511638 
Ag      20.37458054      22.15286845      31.31037654 
Au      24.79666904      29.98336090      28.62928828 
Au      18.06206056      28.25235188      22.95406123 
Au      28.09293733      18.99520199      28.56980199 
Au      19.02948326      20.16301587      29.72737928 
Ag      29.76451826      22.69395547      22.61799588 
Au      19.58149450      21.58847035      19.23782822 
Ag      18.23916701      17.82256884      25.21244773 
Au      15.69643015      22.16764945      24.54197171 
Au      16.73075925      26.16116663      21.39760494 
Ag      26.53857224      24.88414542      17.27156653 
Ag      28.06051761      29.45380527      26.20039951 
Ag      17.15074798      19.89925726      23.49161556 
Au      18.77428526      17.63661342      22.36614122 
Ag      30.69054743      20.63304707      24.47109855 
Au      22.07929837      27.44540742      17.67404113 
Au      21.13446994      19.33203873      18.30129095 
Au      22.17438891      17.21847598      19.92419862 
Ag      21.94940009      15.40528142      27.64840934 
Ag      18.97590436      24.47117072      32.36215799 
Ag      26.47913890      25.65399498      32.32426134 
Ag      14.84057688      24.24464921      22.72203272 
Au      29.61997690      20.71114295      30.16581766 
Ag      23.82811292      32.00914750      26.78383013 
Ag      22.43921808      15.22091514      24.74853674 
Ag      25.03608058      16.86840411      20.40653705 
Au      28.53733281      27.66922044      31.06209026 
Ag      19.25679034      17.41896848      19.48427893 
Ag      27.72648218      31.25225658      21.50110489 
Au      15.33876527      24.08051809      19.88800038 
Au      21.24602827      17.16973394      31.44411827 
Au      21.24477473      32.11031009      23.17594085 
Au      14.21661265      24.46560393      25.45913871 
Ag      22.24548137      23.04260333      14.96929384 
Ag      30.69264087      26.75747071      19.59066034 
Au      18.31652841      19.47893844      17.74173087 
Au      22.85453882      18.06750134      16.40221250 
Au      15.56922006      17.43723620      26.09694617 
Au      30.28522660      29.96863425      27.84160210 
Ag      29.74739608      18.24760455      19.83467239 
Ag      13.65459906      21.56817220      22.56062357 
Au      30.40478389      17.59472042      31.05859857 
Au      27.06969359      16.07763871      18.47718769 
Ag      20.80240147      32.31108106      26.26079301 
Au      19.20727428      27.96173417      17.25363295 
Au      25.80451595      17.94317613      16.69089642 
Ag      14.40456233      19.56037907      24.54884699 
Ag      19.18673567      33.18442758      21.07393596 
Ag      24.08351523      21.91588399      12.76536868 
Ag      34.49410490      22.58307737      27.50406878 
Au      29.03592155      32.77289210      29.38853868 
Ag      19.20396114      31.08975919      16.73123674 
Au      23.44760970      15.00259490      18.84654293 
Au      13.86082861      27.10060442      19.26824958 
Au      20.96228096      26.70257794      34.30800675 
Au      19.61447621      28.55582721      32.14143013 
S      20.86619749      16.02877732      33.60084242 
S      28.51107036      32.60019470      19.54260998 
S      24.11438120      23.06892427      35.83452868 
S      24.51228090      18.22333474      35.61221427 
S      12.27644290      18.23283798      24.22913913 
S      32.16588725      17.48101172      29.48876726 
S      31.49328521      14.78905978      21.57261056 
S      30.03981821      19.34346838      16.10995095 
S      28.28365726      22.07689139      33.30072597 
S      23.07263236      27.73624126      34.65768701 
S      13.50866415      30.03261870      24.98891620 
S      16.35958014      18.11586516      17.24244378 
S      32.70975499      23.20313279      19.75255453 
S      26.51043498      30.68484362      33.45227404 
S      22.80991092      32.45022478      32.64613751 
S      17.05844079      31.78338200      17.66017441 
S      11.37644946      22.44559702      22.98662916 
S      24.88906281      13.11468354      26.92681709 
S      33.81468549      28.97005538      27.63388420 
S      28.57669077      26.54722582      33.30169056 
S      23.90980783      24.17093649      11.92315255 
S      27.38507576      25.92378637      13.01401551 
S      19.08544909      33.30527762      30.33519822 
S      28.79307289      17.54313849      32.78070695 
S      21.32842635      34.12354565      24.59640077 
S      30.89602815      32.32497868      28.01510213 
S      28.83623734      29.16464943      16.30635652 
S      33.48851384      17.06175143      23.90806500 
S      34.81067053      21.62362241      23.38943029 
S      19.34737428      13.65972823      25.58605725 
S      20.81312848      33.76990877      19.36290823 
S      12.61332883      19.49929799      19.70825928 
S      18.64934121      30.25582018      33.59790005 
S      31.76969655      31.09270061      23.32205833 
S      35.21249458      27.19962696      23.38208663 
S      30.95908873      30.58408190      31.82305041 
S      23.19865293      13.32302489      23.30569483 
S      32.08673740      19.09259558      19.74040270 
S      28.69563287      14.38813620      17.83759360 
S      15.53309026      30.49206190      29.21677263 
S      31.60545677      21.85328446      30.99347904 
S      20.64286286      26.69113179      13.91940452 
S      17.20044969      27.06994071      16.24668883 
S      27.31135877      12.73768108      21.93949765 
S      17.01474963      33.53335704      26.13853673 
S      15.36308594      21.59832014      31.30033743 
S      21.03196981      16.66233547      15.64886698 
S      24.54684634      29.17711408      13.53296419 
S      20.07163601      22.06750556      14.12325632 
S      21.07941406      31.39602281      15.23797432 
S      23.50320492      34.11821340      28.04664056 
S      13.56938699      17.33205026      29.04504931 
S      24.33883006      33.60849189      22.07125265 
S      27.60205600      21.19631896      12.53905709 
S      16.39481681      23.06356129      16.69312176 
S      26.14789815      16.54905596      14.70912069 
S      17.26732224      14.33921362      29.98568210 
S      28.78165510      13.93211590      29.76876999 
S      27.31208438      33.63120345      30.75783983 
S      32.74799035      28.14899368      19.63115694 
S      24.97598637      14.73033225      32.47500904 
S      14.37240797      29.39583834      19.20866183 
S      13.27945007      25.77481304      27.28747357 
S      34.70963518      20.16560682      27.73333916 
S      30.15094221      23.66082428      15.96061489 
S      18.80568537      25.72531069      34.49422101 
S      35.38138071      24.79462525      27.06375973 
S      20.04418316      20.67597848      34.90281292 
S      32.16448822      26.10116937      31.08313494 
S      23.77838043      19.47766059      12.74591290 
S      17.06358812      33.37187960      22.29055724 
S      15.58420608      26.19910749      30.61572077 
S      11.86118899      27.16405884      22.92221114 
S      24.31990605      13.14883001      17.59513438 
S      13.13861485      24.84917080      19.16228508 
S      21.78054851      13.77373675      29.50702710 
S      16.82796549      17.48704790      32.57015973 
S      15.76348805      15.77101914      21.30115769 
S      14.93669960      15.08121478      25.85666571 
S      25.18221250      32.86394287      16.38007856 
S      29.45949800      13.59143516      26.02942903 
S      19.95937962      13.82401006      19.27799677 
S      27.17649466      33.52501113      25.68299001 
S      12.86815423      21.54447132      27.42914657 
C      21.36422715      14.27489451      33.42386427 
C      30.28571079      32.95853669      19.85343007 
C      23.48013647      24.44499491      36.87549286 
C      23.85085247      19.03976013      37.11863450 
C      10.88531990      19.20448484      24.92965520 
C      32.55733482      15.69889299      29.29409837 
C      31.70798343      12.99932128      21.92369176 
C      31.69701456      20.12170808      15.96794727 
C      28.09319572      23.10924463      34.79915424 
C      22.73087975      29.18356230      35.73636836 
C      13.30297649      31.73331139      24.33072246 
C      16.92879962      16.77243767      16.12735340 
C      33.14571172      24.20166380      18.28050138 
C      26.27176733      32.40581755      34.02743869 
C      22.38868345      34.13119334      32.03874121 
C      17.26259182      33.61243582      17.60438725 
C      10.53788557      22.42499931      21.34938576 
C      26.30205911      12.07150340      27.44967406 
C      34.75236157      28.06894137      28.92704587 
C      28.21111914      27.73727702      34.64581680 
C      22.67088693      24.06699532      10.56459553 
C      26.58814115      26.53835032      11.48451470 
C      17.59781120      33.12840169      31.39661142 
C      29.53013279      18.47012200      34.18438758 
C      19.85671431      35.17558014      24.30616064 
C      32.40387002      32.44967599      29.04882962 
C      28.64148327      30.15245498      14.77324455 
C      34.48768612      16.65187349      25.39535366 
C      35.48787138      21.62118181      21.68408641 
C      17.80273130      12.75384700      25.17429936 
C      21.65935311      35.27843652      19.98033420 
C      12.49839632      17.96433980      18.70883871 
C      18.77648231      29.66829959      35.33291040 
C      33.47210616      31.50717472      23.86814845 
C      35.64777689      28.61914897      22.29771308 
C      31.53310369      30.81697817      33.55485147 
C      21.79696338      12.21255122      22.88605768 
C      33.27167746      17.76873780      20.18429449 
C      27.97596354      12.72471126      18.12175596 
C      14.30313810      29.78053409      30.37822741 
C      33.00334691      20.67705602      31.07751511 
C      19.45827837      25.82482182      12.81399174 
C      16.04922133      28.47398652      16.00035286 
C      26.24846289      11.28800325      22.31243292 
C      15.33515111      34.02642334      26.68902699 
C      15.48824081      20.75606661      32.92503507 
C      21.74851799      15.48472224      14.43836495 
C      22.99827159      29.49982430      12.60703275 
C      20.38653941      20.58596111      13.08919922 
C      21.47365125      33.17769424      15.45549256 
C      24.03167709      35.45932048      26.90811898 
C      12.10483263      17.78632139      30.06514075 
C      25.90281854      34.57195129      22.07098194 
C      28.90487939      21.43147025      11.26162897 
C      16.45105833      21.93790281      15.24759835 
C      27.94595650      16.23186348      14.53886617 
C      17.27140827      12.50313137      29.85911753 
C      29.85252898      13.79492196      31.25995057 
C      27.75017812      35.41331347      30.91143402 
C      32.60651473      29.36816486      18.26204270 
C      25.98990525      14.91236614      33.99866374 
C      12.99271844      30.23702554      20.08000174 
C      12.02746595      26.93900616      26.63056400 
C      36.17585676      19.82354990      26.67823377 
C      30.26327286      25.00182313      14.72270571 
C      18.90953826      24.53079929      35.88677664 
C      36.57350429      24.47657456      25.69831923 
C      19.99713238      19.32705951      36.14799354 
C      32.14573505      25.38768027      32.77382612 
C      25.08583607      18.68812845      11.73598534 
C      15.75997619      33.56370072      21.01265603 
C      15.15074073      25.40071779      32.21259600 
C      10.80062651      27.29517314      21.42700490 
C      22.90631440      12.41778798      16.67880427 
C      12.95959854      24.46128133      17.37815872 
C      21.37705273      12.16576673      28.71784458 
C      16.89883387      15.80215898      33.28679171 
C      13.98028097      15.34359967      21.22710758 
C      13.14940618      14.97943146      26.25258685 
C      26.86400562      33.52524655      16.06177750 
C      31.22392624      13.18966182      25.72099881 
C      18.18211300      13.45586249      18.99571763 
C      28.87640206      34.21424543      25.68035929 
C      12.12945901      21.95097652      29.06094837 
H      22.38693004      14.18639626      33.03910443 
H      21.28617463      13.80242501      34.40974078 
H      20.66616769      13.80384202      32.72104306 
H      30.75860224      33.27089172      18.91606826 
H      30.33031096      33.77893425      20.57977583 
H      30.80500404      32.08627926      20.26605762 
H      24.33400180      25.07103899      37.15931339 
H      22.75409378      25.06179671      36.33400884 
H      23.01967334      24.02363401      37.77581581 
H      23.63532321      18.27768145      37.87544962 
H      24.63044577      19.71888208      37.48340131 
H      22.94936865      19.62388003      36.90406557 
H      11.00083177      19.19727588      26.02030901 
H      10.89991246      20.23954151      24.56984072 
H       9.94543924      18.71799633      24.64627239 
H      33.28353002      15.61540038      28.47645002 
H      33.00836658      15.33790083      30.22553773 
H      31.65980404      15.11684872      29.05656450 
H      30.75920992      12.52904391      22.20635813 
H      32.12186391      12.50920825      21.03582137 
H      32.42378223      12.91542634      22.75034333 
H      31.61585800      21.21079897      15.88160787 
H      32.25200645      19.86135226      16.87797306 
H      32.20284333      19.71023265      15.08760580 
H      27.68396578      22.48648511      35.60258787 
H      29.08642529      23.48340349      35.07455799 
H      27.42456681      23.95855580      34.61273677 
H      22.05060986      29.89705995      35.25406095 
H      22.30742373      28.83887281      36.68616446 
H      23.69307880      29.67729415      35.92037503 
H      12.64257217      32.29554324      25.00033706 
H      14.26992305      32.23808140      24.23330336 
H      12.83386326      31.64020307      23.34363790 
H      17.13856862      17.22223110      15.14971343 
H      17.83602271      16.28862785      16.50710611 
H      16.11872756      16.04006924      16.03434045 
H      32.35048533      24.91501287      18.03118923 
H      34.06912332      24.74754791      18.50696404 
H      33.30507407      23.52273319      17.43496669 
H      26.73038077      33.11504272      33.33079641 
H      25.19647638      32.60730760      34.10486251 
H      26.74787765      32.48515558      35.01244108 
H      21.51044253      34.11944125      31.38419929 
H      22.19240070      34.77127233      32.90644840 
H      23.25175552      34.51432947      31.47979103 
H      16.42057614      34.07090138      18.13584750 
H      18.20384125      33.93250946      18.06530381 
H      17.23927091      33.92881285      16.55546845 
H      11.12977616      22.94600294      20.58913470 
H      10.40016149      21.37941184      21.04843953 
H       9.56115143      22.91103286      21.45303116 
H      27.21866573      12.65156185      27.59049441 
H      26.03795270      11.57533816      28.39087228 
H      26.46769330      11.31880378      26.66881869 
H      35.69560511      28.60762454      29.07801876 
H      34.16268048      28.07851999      29.85195382 
H      34.96201778      27.03654591      28.62675881 
H      28.26155361      27.18333530      35.59163666 
H      28.96905774      28.52967322      34.64605116 
H      27.22059809      28.18771870      34.53635680 
H      22.55901536      25.06719883      10.12925480 
H      23.03783867      23.37646309       9.79694829 
H      21.70084857      23.72331158      10.93783074 
H      25.76957327      25.87887517      11.17572554 
H      26.20531563      27.54862013      11.67310369 
H      27.36103038      26.56963963      10.70674989 
H      17.93705436      32.92157777      32.41905724 
H      17.04498476      34.07425739      31.36711739 
H      16.96064245      32.30982939      31.04557310 
H      30.41762019      17.93737134      34.54212019 
H      29.78725909      19.49412048      33.89400808 
H      28.77205400      18.49981546      34.97676238 
H      18.92765209      34.59863773      24.30292713 
H      19.81495763      35.91830271      25.11225800 
H      19.97797909      35.68545153      23.34265050 
H      32.24915278      31.99937570      30.03524291 
H      33.20212844      31.91653818      28.51792570 
H      32.65573686      33.51196591      29.14636518 
H      29.42786324      30.91532541      14.74341599 
H      28.75863261      29.46414275      13.92728019 
H      27.64963902      30.62192991      14.72337494 
H      34.28118831      15.60845246      25.66193472 
H      35.55080001      16.75675528      25.15002383 
H      34.23652425      17.30049748      26.24195724 
H      34.72514831      21.33277757      20.95322170 
H      35.83685760      22.63498335      21.45532432 
H      36.33056692      20.92128775      21.65142901 
H      17.49916870      12.17694057      26.05630232 
H      16.99457207      13.43676342      24.89611437 
H      18.01503524      12.06943171      24.34468529 
H      22.40738988      35.56557825      19.23157330 
H      20.92739172      36.08513508      20.09391191 
H      22.16732893      35.08564138      20.93226272 
H      12.75151686      18.23094594      17.67592791 
H      13.19800057      17.20052114      19.06355058 
H      11.46816438      17.59427072      18.75980611 
H      18.60761983      30.52330274      35.99776033 
H      17.99928977      28.91168336      35.49057553 
H      19.75294091      29.21938102      35.54007881 
H      34.01850221      30.61772547      24.20751753 
H      34.00274703      31.97259934      23.02906741 
H      33.39919886      32.22099759      24.69711510 
H      35.59283904      28.27423682      21.25882640 
H      34.96012168      29.46056027      22.42356299 
H      36.66977136      28.93562156      22.53490796 
H      31.07129911      30.09396248      34.23353620 
H      32.62287498      30.70393263      33.58314486 
H      31.26093906      31.83355215      33.86191717 
H      21.82469753      11.37853240      23.59787811 
H      20.84270685      12.74334921      22.98338766 
H      21.92199525      11.83987001      21.86366633 
H      33.38202613      17.11664407      19.30930664 
H      34.23616211      18.23139679      20.42515027 
H      32.93097355      17.17003214      21.03364806 
H      27.21459637      12.54778881      17.35302718 
H      28.78619673      11.99259886      18.02697072 
H      27.52532160      12.65544201      19.11724825 
H      13.38961741      30.38363834      30.33955041 
H      14.08956607      28.73345701      30.13882220 
H      14.74528275      29.83545866      31.38070822 
H      32.80808837      19.97292547      31.89561987 
H      33.13334637      20.12343101      30.14332897 
H      33.91040319      21.25603220      31.28909685 
H      19.57376296      24.73664427      12.87120877 
H      18.44398730      26.09781558      13.13009077 
H      19.62476437      26.16241515      11.78438538 
H      15.98967528      29.12452401      16.87758117 
H      16.39145567      29.05608454      15.13711317 
H      15.05613578      28.05433608      15.79717533 
H      26.87408588      10.44723350      22.62997165 
H      25.50623317      11.53019577      23.08067774 
H      25.72895501      11.03077657      21.38099005 
H      14.72604200      34.16484945      25.78792266 
H      14.88542678      33.25826973      27.32836896 
H      15.41051736      34.97637237      27.23004716 
H      15.31002201      21.50167011      33.70878896 
H      14.71847957      19.97668935      32.97363320 
H      16.47084065      20.29695621      33.06774574 
H      22.00166034      16.06066968      13.53987151 
H      22.65627006      15.00749148      14.82760573 
H      20.99565324      14.72640451      14.19394991 
H      22.24970619      29.99045315      13.23977014 
H      23.25082859      30.13990221      11.75380928 
H      22.61179515      28.53431997      12.25879856 
H      19.43056287      20.07685998      12.91953059 
H      20.80893583      20.90985886      12.13046639 
H      21.08547159      19.89801998      13.57474508 
H      22.45955822      33.36950073      15.01579131 
H      20.71307631      33.76525660      14.92890651 
H      21.48545828      33.45839936      16.51514445 
H      24.08811863      36.39535275      27.47425451 
H      25.00081842      35.22975970      26.45130736 
H      23.26303796      35.53240727      26.12815840 
H      11.94458425      17.01083174      30.82285889 
H      12.24524299      18.75497464      30.55473587 
H      11.23008541      17.83601662      29.40600161 
H      26.18799392      34.80576535      21.03964534 
H      25.71694068      35.49882680      22.62685656 
H      26.70692251      34.01123854      22.56273088 
H      29.72581010      22.04980621      11.63620522 
H      29.28827861      20.44830863      10.96569220 
H      28.44069308      21.92095814      10.39751328 
H      15.43797049      21.55020603      15.08767870 
H      16.77904307      22.50836619      14.37136229 
H      17.14538338      21.10736587      15.42102983 
H      28.38005853      15.84577666      15.46679944 
H      28.07337213      15.49421791      13.73742999 
H      28.43695944      17.17360984      14.26314205 
H      16.23684213      12.14654083      29.80254979 
H      17.82794411      12.16396788      28.97953397 
H      17.74386760      12.10073256      30.76302726 
H      30.88590145      13.64372324      30.92616756 
H      29.80279033      14.69564479      31.88134059 
H      29.53201344      12.92296817      31.84104555 
H      27.87720892      35.87628382      29.92888726 
H      26.94233787      35.91245143      31.45908083 
H      28.68378788      35.48234821      31.48124838 
H      32.84466101      28.85530094      17.32284957 
H      31.59557636      29.78648559      18.19445644 
H      33.33117550      30.17266388      18.43098432 
H      26.76680773      15.67530079      33.87587515 
H      25.32443876      15.20105671      34.82146145 
H      26.45596655      13.94579152      34.22103477 
H      12.84439630      29.82378436      21.08356218 
H      13.26345417      31.29744567      20.15398136 
H      12.07570332      30.13657476      19.48891002 
H      12.38098305      27.47325730      25.74426751 
H      11.12038894      26.37673086      26.37998699 
H      11.80578907      27.66468298      27.42318289 
H      36.07310934      20.27615502      25.68620467 
H      37.05708131      20.23485741      27.18443591 
H      36.28836682      18.73793864      26.57860055 
H      29.49492730      25.76419894      14.88396125 
H      31.25664142      25.45641053      14.82181132 
H      30.14867767      24.57335281      13.72003654 
H      19.67769464      23.76860597      35.71435913 
H      19.12286836      25.07954728      36.81043040 
H      17.93151273      24.04125299      35.96756189 
H      36.80365701      25.43089018      25.20971120 
H      37.48514728      24.05258381      26.13437289 
H      36.15948554      23.78226770      24.95862769 
H      19.89683941      19.77059958      37.14530089 
H      19.11957932      18.70672457      35.92886581 
H      20.89586586      18.69939602      36.09963134 
H      32.25490154      24.30103642      32.66634801 
H      32.99182231      25.79498599      33.33802756 
H      31.20239441      25.61527847      33.28438220 
H      25.97217154      19.32729939      11.66477594 
H      25.35328848      17.73238457      12.20259089 
H      24.66152557      18.51755232      10.73905478 
H      14.78762673      33.40446753      21.49349713 
H      15.80999645      34.58733936      20.62298537 
H      15.88787399      32.84661783      20.19332168 
H      15.36008690      26.09748200      33.03166857 
H      14.07981302      25.16597885      32.18811080 
H      15.71714778      24.47300284      32.35522275 
H      11.13484195      26.62133657      20.63148657 
H       9.77562929      27.04371385      21.72426439 
H      10.83109168      28.32913284      21.06484342 
H      22.31879521      11.82195027      17.38684829 
H      22.26015110      13.18730587      16.24505435 
H      23.30754908      11.77253108      15.88893139 
H      12.69380728      23.39984429      17.30422320 
H      12.15234880      25.07851369      16.96865846 
H      13.89536836      24.63907132      16.83831353 
H      22.29494149      11.77560056      28.26046581 
H      21.02538427      11.47238922      29.49080295 
H      20.61109521      12.28183739      27.94264259 
H      16.83416877      15.03836200      32.50365786 
H      17.84603748      15.70235599      33.83092486 
H      16.05529815      15.70296969      33.98047967 
H      13.34870148      16.24013736      21.28410556 
H      13.77509582      14.79013837      20.30413459 
H      13.76942727      14.70299888      22.09246061 
H      12.88183452      13.91738618      26.30554874 
H      12.93472857      15.47134598      27.20813233 
H      12.58870173      15.47170915      25.44926394 
H      27.60975681      32.72485499      16.01819479 
H      26.84132161      34.08133148      15.11778027 
H      27.11237284      34.19656166      16.89211608 
H      31.64674386      13.82719596      24.93751592 
H      31.75913642      13.35631268      26.66365295 
H      31.29918303      12.13450217      25.43537068 
H      18.07026346      12.96199465      18.02446969 
H      17.86425112      12.77440774      19.79410708 
H      17.56730930      14.36231214      19.03676233 
H      28.95940280      34.91065804      24.83754746 
H      29.03705628      34.75046788      26.62322755 
H      29.62828386      33.42531146      25.58336419 
H      11.88229763      23.01965853      29.05713881 
H      11.21382820      21.36227365      29.18939777 
H      12.82480912      21.74381792      29.88255314 
