699
Properties=species:S:1:pos:R:3 i=180 optimized=T E=-10866.8960220081 pbc="F F F" jobid=279_84-Ag-10_0-000005-PBE
Au      33.23187079      25.47494144      26.02056204 
Au      32.07160947      29.43448996      21.55294159 
Au      34.65120675      28.13764052      25.37911806 
Au      29.92298851      14.94616763      19.73645386 
Au      34.08861851      19.48009453      23.75102213 
Au      27.51702517      23.47440115      12.95304089 
Au      18.23757365      33.28871708      28.10066529 
Ag      28.55046343      31.00854304      18.32173471 
Au      24.92243415      21.21119024      23.29443918 
Au      26.29810028      23.25285104      24.97505229 
Au      28.21260021      25.11799909      23.65783193 
Ag      23.77125017      21.61518662      29.11260750 
Au      23.35473116      27.91810985      27.02759772 
Au      26.90997173      23.06351319      22.01887789 
Au      22.35828062      19.56173891      27.48674678 
Au      27.23948397      21.15460009      26.76189190 
Au      22.01760905      21.48008331      22.75952420 
Au      20.98164982      23.56149028      20.87636322 
Au      27.65536521      25.32326068      26.61590707 
Ag      19.94596975      24.04319765      26.75116313 
Au      25.46337226      21.05882121      20.35366878 
Au      24.30266112      25.77657789      28.83846472 
Au      23.82572760      27.71264517      24.08544280 
Au      26.21827896      27.69044755      27.65722251 
Au      20.87337834      21.91137421      28.49181910 
Au      22.84929846      23.71672387      27.26273891 
Au      21.46060805      21.68208596      25.65014011 
Au      19.47204983      19.82801935      26.96117233 
Au      25.83275103      19.07959472      25.17212986 
Au      25.25188430      23.61274479      30.78516427 
Au      22.96681422      25.35815384      19.57997165 
Au      20.95534202      27.90791559      23.55875674 
Au      26.63777356      27.41956920      24.75311851 
Au      22.56061682      21.33728350      19.85494761 
Au      21.89958696      25.83921952      25.41253675 
Au      27.23365638      25.51837196      29.49391802 
Au      20.12820991      19.62009964      24.09446382 
Au      25.87793982      25.06107064      20.18423032 
Au      23.50439522      19.14458927      21.66065501 
Au      22.31780531      23.93587638      30.10493362 
Au      21.01862904      17.43508522      25.92708856 
Ag      21.51237673      27.64361849      20.57330189 
Au      24.38365662      27.41904320      21.23034944 
Au      24.48855476      23.09480751      18.48929182 
Ag      28.66206424      23.19169547      28.49426299 
Au      18.58558170      21.93819479      25.13256724 
Au      26.69331357      21.29331461      29.66437343 
Au      22.37264358      30.09789789      25.13518314 
Au      27.24245252      27.14185130      21.82735514 
Ag      21.74518053      19.72566396      30.34351497 
Ag      18.44150096      26.39138793      27.77537467 
Au      23.12064664      21.74458037      31.99159786 
Au      21.51655887      23.35886999      17.91123553 
Au      17.05161596      24.30688705      26.22370448 
Au      27.45910268      22.77622456      19.04554308 
Au      23.86108052      17.16578829      26.40173247 
Au      23.23227149      17.41729082      29.32824577 
Au      25.20516647      29.81908143      25.77448263 
Au      21.59785876      17.18849900      22.96214420 
Au      28.78549755      18.77427419      25.73249560 
Au      22.84561260      29.75944401      22.20101848 
Au      25.32529421      25.34050286      23.09253351 
Au      20.03398815      25.60260690      18.96596282 
Au      29.56229123      27.19694109      25.39283115 
Au      19.36445218      24.34137790      29.65472734 
Au      17.95425028      22.21051411      27.99869217 
Au      19.99983240      28.36709760      29.42904160 
Au      23.70554921      25.90597712      31.68994481 
Ag      20.89207037      26.40339679      31.30375008 
Au      26.35583190      18.95440598      22.14645815 
Au      24.61401712      19.47197743      30.94541132 
Au      20.30371098      17.61979929      28.82959858 
Au      28.88308501      24.84680990      20.72087144 
Au      19.52463662      30.19636191      24.61567103 
Au      25.73377069      29.61296689      22.79633052 
Au      24.92205569      27.05638261      18.25505895 
Au      28.42845019      20.77712594      20.87658447 
Au      29.10996823      27.49393056      28.28056799 
Au      30.09701440      20.94313624      27.33336931 
Ag      18.09366874      23.84391087      20.29825058 
Au      17.71254208      19.61854920      20.66934538 
Au      25.68210753      27.78292201      30.52105548 
Au      28.12259827      23.50999659      31.30437173 
Ag      21.93740537      30.24654178      28.08889781 
Au      21.73768641      24.18196744      32.97420807 
Au      18.65265476      27.91960233      20.03581489 
Au      16.26426574      21.90061228      21.65629654 
Au      30.55056375      25.14443622      27.17551227 
Au      23.39471734      23.50581185      24.37918693 
Au      20.00328407      29.96072454      21.61646905 
Au      16.49135936      20.04864914      26.52516334 
Ag      26.71235019      16.96494050      26.98838958 
Ag      30.03051589      25.31937725      30.05954622 
Au      17.58682193      28.44801775      25.92590212 
Au      16.18790532      26.31839267      24.29601692 
Au      28.51074173      29.22194266      23.39748532 
Au      27.83275935      26.89397245      18.94712865 
Au      24.08875669      19.05665466      18.70258679 
Au      27.32814907      16.82488299      24.03376538 
Au      26.92915578      18.75854223      19.21451523 
Au      25.96189685      21.39351072      32.69406414 
Au      12.44581264      18.87969930      21.73098333 
Au      23.02774892      21.09249849      16.93704144 
Au      26.34120126      29.24973370      19.86020084 
Au      19.84625963      19.66407519      32.50259270 
Ag      26.12624668      17.14818299      29.89814652 
Au      29.23090076      18.68042169      22.77781319 
Ag      27.69616491      29.83900788      29.29901485 
Au      15.13589927      22.45380890      27.48184901 
Ag      26.04323843      20.80667709      17.29010460 
Au      24.53292749      23.86980648      33.58531327 
Au      23.51025952      25.09621712      16.50360035 
Au      17.47586073      17.91892891      28.27254768 
Au      19.08706433      30.45669338      27.57109644 
Au      23.50100047      29.43697897      19.26905291 
Au      22.40536735      25.59975798      22.48650694 
Au      16.03491370      20.04026484      29.41599596 
Au      27.48598431      19.20464783      31.41301581 
Au      29.14745968      29.00550910      20.59072206 
Au      16.45319277      24.45685419      29.05146227 
Au      32.01769778      22.85211959      26.11862612 
Ag      16.65746270      21.64527715      18.81671533 
Au      24.90425064      31.58181964      20.73908812 
Au      21.98051276      31.66794425      20.26672652 
Au      20.64173753      25.33283579      16.06195078 
Au      24.28823344      31.93204346      23.95227007 
Ag      20.56967746      29.71438484      18.68916669 
Au      23.09390373      14.93193195      21.61990640 
Ag      30.35042008      22.54255641      19.60042926 
Au      25.10597311      22.83315449      15.51910331 
Au      18.67969644      23.61517239      17.32485378 
Au      28.86813410      20.56674282      17.97372222 
Au      17.57823297      22.52182962      31.02670854 
Au      17.13117474      28.75517145      28.79814696 
Au      27.84605112      16.66876420      21.05639339 
Au      15.55243382      26.94642248      27.08304815 
Au      18.77289508      15.62907327      27.26576642 
Au      19.57412535      15.36718494      24.02665969 
Au      17.98657331      26.76354409      30.77814508 
Au      20.12334992      15.33025642      21.25406253 
Au      27.24369560      31.57607465      24.33360158 
Au      24.77868129      15.20705344      28.35703468 
Au      23.94881993      23.30766133      21.47370023 
Au      20.09090884      21.12384531      16.39050402 
Au      27.87375790      22.71603566      15.90970975 
Au      31.36840737      20.40885123      21.75450328 
Ag      26.79687773      31.90386393      27.45979177 
Au      25.69904376      14.86453709      25.23557062 
Au      28.74642483      16.29210210      28.91440674 
Au      25.97531960      14.86098179      22.31897520 
Au      32.55217307      22.60882066      23.28060937 
Au      25.74516173      30.53850374      31.34370454 
Au      22.98801539      30.91113110      30.74739325 
Au      24.14838428      16.89985237      32.00677121 
Ag      31.33299181      17.85996066      24.71423674 
Au      16.84444383      26.10588193      18.64541186 
Au      31.58178241      23.02377939      28.87212180 
Au      29.36880623      16.03679015      26.01808508 
Au      15.50309594      29.19569258      23.95928385 
Au      16.03480328      28.94651027      21.07013922 
Au      16.99330170      31.19213057      25.60415138 
Au      29.48075391      24.84992185      17.88638799 
Au      30.76946728      18.06369966      27.63645654 
Au      18.50023604      17.57138779      31.00200919 
Au      23.94113697      19.71942029      33.73490353 
Au      18.03938661      30.72804044      19.75450379 
Au      17.43757443      31.02473328      22.66519354 
Au      14.17086490      27.03821859      22.35879112 
Au      32.63231682      19.98455726      26.33592683 
Au      24.78925733      25.56157297      25.99354194 
Au      32.93433903      26.81849237      23.03939875 
Au      24.66043210      20.01773521      14.89217945 
Au      20.14731299      31.06669580      30.20450828 
Au      31.84092274      27.75998067      27.17408613 
Au      23.83496402      28.58881325      32.55879709 
Au      29.80073344      15.87199960      23.10221021 
Au      22.48459669      16.98890733      34.60733103 
Au      13.28903846      19.47766592      28.46019357 
Au      24.19143271      27.90810357      15.65962108 
Au      15.14538717      17.36717992      30.83020268 
Au      25.53089613      25.58569903      14.68595102 
Au      29.15701543      30.50015988      32.26722584 
Au      22.60717932      30.12922155      16.71518296 
Au      21.95196365      21.79036785      34.96834681 
Ag      31.26703700      28.21096946      30.18401291 
Au      19.17928652      13.81646474      29.57341760 
Au      22.30015501      25.15963746      12.86159066 
Au      15.94006437      14.70350879      28.07209477 
Au      25.53262081      33.74967499      29.35652983 
Au      26.73319967      14.55227317      31.20031539 
Au      28.52053704      13.31458579      24.07010519 
Au      16.03263384      17.07094239      18.98739884 
Au      15.94123699      17.81454032      22.26369038 
Au      20.68584287      15.36823283      17.69464133 
Au      11.81479321      24.61562067      23.06356599 
Au      14.54556112      30.20638303      27.13614420 
Au      24.34511243      21.36596969      26.22196006 
Ag      14.92936147      19.77054408      20.25243377 
Ag      25.43386011      31.15049991      17.96158727 
Au      28.74377209      20.33270029      14.39000930 
Au      30.19661527      27.04912985      22.51610223 
Au      31.11031626      24.94515452      24.24478110 
Au      31.81816575      24.78125483      21.41178820 
Ag      20.49871343      23.78654276      23.83219934 
Au      25.25761582      14.80544621      16.04517878 
Au      30.72403406      29.76008745      25.09152597 
Au      25.75923253      23.41513631      27.90712802 
Au      26.79705109      28.67207535      16.98209629 
Au      20.72948042      31.46362956      33.20630223 
Au      17.66663857      23.96216584      23.29537586 
Au      22.97701681      19.28482146      24.54079205 
Au      27.76652439      20.93858995      23.85139406 
Au      19.54860493      25.86365106      21.92688462 
Au      24.96985608      31.09284429      14.94973343 
Au      25.19371476      19.25131468      28.06916992 
Au      19.02730208      26.07434664      24.88117944 
Au      20.52842430      28.15058919      26.52223635 
Au      21.37791463      26.03570666      28.34687739 
Au      29.14869477      23.08023031      25.53824808 
Au      19.15663290      21.72794849      22.18879151 
Au      24.48851265      16.99397545      23.50348818 
Ag      22.86279671      28.15385521      29.89931720 
Au      20.66751809      19.42893076      21.17910197 
Au      20.36753330      22.22582889      31.37525891 
Au      24.83729110      30.08476835      28.71672712 
Au      18.01428149      28.24221157      22.96435223 
Au      28.11973899      18.99487384      28.58090447 
Au      18.91162853      20.16050261      29.82725228 
Au      29.77315568      22.77651900      22.59456266 
Au      19.56755031      21.52145665      19.25916021 
Au      18.22072777      17.69867637      25.34900021 
Au      15.65620210      22.10052763      24.60106991 
Au      16.64810889      26.05552501      21.40173841 
Au      26.53286576      24.84522409      17.28340621 
Au      28.04142466      29.55078465      26.31414355 
Au      17.21919836      19.83034986      23.64987249 
Au      18.76238210      17.56106935      22.46015932 
Au      30.65145823      20.70175450      24.47285479 
Au      22.06157979      27.42269229      17.65028833 
Au      21.12078704      19.27552876      18.31407861 
Au      22.15053634      17.12112077      19.91213562 
Au      21.83425493      15.37016931      27.72812980 
Ag      18.94540942      24.53651729      32.51237437 
Au      26.41826878      25.68747669      32.53880882 
Au      14.78658486      24.19776608      22.72713359 
Au      29.61614799      20.79343855      30.18800524 
Au      23.79055924      32.06800880      26.77373525 
Au      22.46785159      15.12930293      24.90287158 
Au      24.97374616      16.86928418      20.46348060 
Au      28.53313764      27.76098370      31.09892896 
Au      19.24630295      17.42525053      19.53063645 
Ag      27.73757748      31.30449092      21.50074602 
Ag      15.20544570      23.97382085      19.88606705 
Au      21.29599629      17.10377270      31.48487390 
Au      21.14681637      32.09521031      23.04993853 
Au      14.14699573      24.48012357      25.42615439 
Au      22.38224515      22.94691227      14.82591076 
Au      30.66024429      26.80915062      19.55850036 
Au      18.27911234      19.42599834      17.73330882 
Au      22.79151636      18.23561542      16.25699084 
Au      15.46383389      17.51950627      26.20211867 
Au      30.29616462      30.04242482      28.02054723 
Au      29.77046798      18.29769599      19.88918648 
Au      13.61668128      21.59237906      22.53369137 
Au      30.47794003      17.60101351      31.04038589 
Au      26.76987088      15.95716376      18.47069596 
Au      20.63365896      32.31877607      26.26825693 
Au      19.25518922      27.75284991      17.15170145 
Au      25.73882606      17.97474133      16.65092618 
Au      14.48286787      19.44293379      24.34215220 
Au      19.08091615      33.40485341      20.77240956 
Au      23.91921947      21.91035341      12.27170958 
Au      34.68634666      22.56399432      27.45767752 
Au      29.13377694      32.86368994      29.27803460 
Au      19.20040984      31.18873315      16.48643891 
Au      23.55693034      14.95393433      18.83543041 
Au      13.79256528      26.94680338      19.31145373 
Au      20.90563426      26.81972451      34.38959342 
Au      19.41947260      28.69439809      32.19226601 
S      20.71507856      15.86079776      33.54815161 
S      28.62197879      32.91019489      19.83285296 
S      23.90519289      22.90557825      35.75181132 
S      24.22631136      18.21407572      35.61794942 
S      12.41794659      18.14986732      23.97780601 
S      32.27248800      17.52221354      29.50988424 
S      31.43832737      14.95629735      21.54533858 
S      29.89438044      19.28263344      16.15276391 
S      28.24023578      22.05330652      33.28966052 
S      22.99485216      27.91470557      34.74110460 
S      13.46328367      30.00325152      25.05163538 
S      16.34396145      18.17086799      16.91790813 
S      32.76326482      23.23527770      19.78845607 
S      27.07219978      30.73190512      33.35323205 
S      22.82826441      32.41044623      32.73591349 
S      17.14851419      31.47405322      17.60763896 
S      11.31661201      22.31505711      22.92983846 
S      25.06780260      13.23118006      26.92505728 
S      33.92962414      29.07487673      27.40966464 
S      28.56493199      26.56875405      33.27322467 
S      24.00132591      24.15918400      11.55928604 
S      27.44140464      25.81427327      13.23134983 
S      19.31612122      33.37304163      30.19718708 
S      28.80592745      17.60249826      32.71442451 
S      21.27754365      33.97991514      24.60947200 
S      30.97888889      32.37513616      27.89492509 
S      28.92332926      29.61273640      16.33863240 
S      33.60296510      17.17843672      23.90395563 
S      34.82331901      21.71771556      23.52768395 
S      19.12386288      13.69696305      25.71267733 
S      20.85908390      33.58204735      19.22449887 
S      12.54953850      19.58755530      19.47871586 
S      18.66642645      30.44138953      33.71006240 
S      31.81782879      31.01179246      23.32299537 
S      35.31010593      27.23481471      23.30381410 
S      31.38240891      30.33639893      31.52094586 
S      23.01582401      13.26331538      23.40739645 
S      32.02962237      19.21558895      19.72903853 
S      28.64976168      14.56326218      17.79175627 
S      15.44477543      30.49184562      29.30350129 
S      31.56237938      21.96747702      31.07976834 
S      20.51862511      26.34650138      13.84008311 
S      17.09697505      26.90543482      16.34437387 
S      27.34466078      12.83494190      22.07670268 
S      16.87428944      33.56380372      26.18849745 
S      15.34467954      21.57407713      31.24775091 
S      21.07257908      16.62052383      15.70221852 
S      24.77592751      29.14951805      13.62074164 
S      20.15874330      22.05568627      14.14947715 
S      21.12527911      31.23897873      15.13579654 
S      23.54873135      34.06984118      28.13920962 
S      13.35621000      17.26584939      29.29446772 
S      24.34061767      33.54658519      22.10615213 
S      27.74074893      21.18487814      12.42742680 
S      16.35612615      23.08131688      16.78566931 
S      26.07163749      16.53197779      14.66607375 
S      16.87777080      13.93748908      30.09864540 
S      28.60828338      14.04466804      29.86963967 
S      27.47303877      33.75675305      30.69586360 
S      32.67623088      28.20689584      19.60058464 
S      25.02271217      14.77320277      32.79667311 
S      14.37060909      29.23942159      19.31268045 
S      13.40265968      25.81373012      27.32775387 
S      34.56069345      20.23623193      27.82208056 
S      30.25686829      23.50414922      16.03686186 
S      18.75861215      25.82676502      34.63583000 
S      35.27957680      24.82673900      27.17864106 
S      19.85840534      20.68842532      34.71039271 
S      32.35072896      25.99358848      30.61973768 
S      23.77749079      19.58946679      12.65050339 
S      17.24581010      33.43132402      22.25482929 
S      15.61693390      26.11554349      30.64807043 
S      11.82458266      26.97820603      23.03658218 
S      24.37109922      13.13800661      17.45552894 
S      12.93699716      24.75121974      19.15071332 
S      21.48199008      13.47025417      29.24471266 
S      16.69430958      17.37579453      32.60474386 
S      15.55223287      15.81903281      20.93876770 
S      14.84583667      15.20223855      26.04369185 
S      25.17810659      33.00939579      16.31003715 
S      29.72953591      13.60888636      26.07594347 
S      20.07174061      13.77477977      19.35775115 
S      27.22193335      33.63383829      25.60747475 
S      12.83416467      21.64766285      27.67076962 
C      21.27065672      14.13112434      33.29919661 
C      30.40349441      33.18613867      20.19398251 
C      23.28353946      24.30315513      36.76707516 
C      23.54146008      19.03761627      37.10721461 
C      11.06393100      19.05389903      24.81878322 
C      32.67073669      15.74220405      29.30981404 
C      31.69331420      13.16639018      21.86412656 
C      31.59543356      19.94948735      15.99816222 
C      28.07268777      23.08806487      34.78921474 
C      22.60350556      29.41109449      35.72352509 
C      13.24213798      31.71961665      24.44086045 
C      17.03096587      16.88827614      15.79777582 
C      33.28019476      24.26989158      18.36851107 
C      26.95201228      32.43492477      34.01463958 
C      22.50222458      34.10103087      32.10881992 
C      16.95370326      33.30026726      17.59564414 
C      10.46315679      22.21569986      21.30758077 
C      26.53443531      12.25721865      27.41898643 
C      34.94641481      28.28538749      28.71430874 
C      28.25617080      27.66799420      34.70527256 
C      23.25108362      24.10878915       9.87982970 
C      26.86412220      26.51039525      11.63802506 
C      17.89057642      33.38989735      31.35467725 
C      29.51499016      18.55593761      34.11257127 
C      19.84650281      35.09561212      24.36212819 
C      32.49173645      32.59198853      28.90717308 
C      28.72756200      30.63167833      14.82531130 
C      34.50748780      16.58562202      25.38781061 
C      35.59867355      21.80479364      21.86731735 
C      17.54171293      12.90014977      25.24676384 
C      21.80998987      35.07047009      19.71970842 
C      12.36740003      18.09350219      18.42704257 
C      18.77474430      29.80982591      35.42816707 
C      33.51757968      31.42835105      23.86502455 
C      35.75878081      28.64030951      22.21339140 
C      32.31641192      29.84205497      33.02518511 
C      21.51551539      12.26725662      23.08425253 
C      33.24130996      17.91811678      20.17509013 
C      28.11274872      12.82143202      18.00978602 
C      14.23004385      29.72541367      30.44481159 
C      32.97222356      20.80406632      31.17937355 
C      19.02103696      25.58815592      13.10133684 
C      15.94179856      28.29670123      16.06747932 
C      26.25046391      11.42162661      22.49182641 
C      15.23928173      33.97016085      26.91858599 
C      15.34176403      20.67869361      32.84464166 
C      21.81575536      15.44793124      14.50633966 
C      23.24459893      29.32849619      12.63015303 
C      20.36764919      20.62526848      13.02571167 
C      21.56221078      33.02169712      15.17318613 
C      23.97245516      35.43003382      26.98120153 
C      11.86319431      17.19006197      30.36694710 
C      25.85537345      34.56792504      22.21164082 
C      29.11579810      21.13476709      11.20723477 
C      16.36069216      21.91918419      15.36559561 
C      27.86856188      16.23487247      14.46247591 
C      16.37669283      12.17013399      30.18273652 
C      29.92786228      13.81466213      31.12581869 
C      27.90742750      35.54542688      30.74438042 
C      32.51218138      29.39718193      18.21314126 
C      25.96911490      15.11697016      34.33142966 
C      12.96920494      30.10059966      20.12615993 
C      12.07757624      26.94284369      26.76217769 
C      36.08613784      19.63155831      26.99894517 
C      30.62950104      24.67901227      14.68075130 
C      18.95755071      24.62213614      36.00945559 
C      36.57870672      24.72315778      25.88521010 
C      19.84351934      19.34116416      35.95174053 
C      32.44316858      25.73950809      32.43579631 
C      25.06986072      18.78105135      11.63497103 
C      15.75512169      33.62624684      21.20270075 
C      15.24392689      25.29476338      32.24120947 
C      10.73392041      27.34555563      21.60555245 
C      22.92402623      12.39258080      16.60916010 
C      12.79171681      24.41733943      17.35152415 
C      21.54879064      12.00029256      28.15030788 
C      16.73582021      15.69236369      33.32589016 
C      13.76173633      15.42621064      20.88949465 
C      13.04589918      15.07649447      26.35861147 
C      26.83522406      33.74011082      16.00598192 
C      31.49756914      13.37448332      25.64631802 
C      18.29813031      13.41778119      19.04513094 
C      28.93882295      34.27513168      25.58083277 
C      12.19774975      22.52005231      29.15399357 
H      22.31064874      14.08834878      32.95905677 
H      21.16512974      13.59892193      34.25164845 
H      20.61464170      13.68353715      32.54155937 
H      30.88440927      33.60453033      19.30265043 
H      30.47578787      33.90418990      21.01916299 
H      30.90550400      32.25746294      20.48730371 
H      24.14876950      24.91371162      37.05148700 
H      22.57353024      24.92163600      36.20635936 
H      22.80621926      23.89322781      37.66438497 
H      23.33355486      18.27274945      37.86381223 
H      24.30774756      19.73105978      37.47353055 
H      22.63360903      19.60287931      36.87152768 
H      11.23984049      18.97497648      25.89940484 
H      11.04256906      20.10879996      24.52405461 
H      10.11627430      18.57043474      24.55431894 
H      33.45247034      15.66804228      28.54398677 
H      33.05024432      15.35376985      30.26168575 
H      31.78925454      15.17592919      28.99199450 
H      30.74903190      12.66702028      22.10788739 
H      32.13918521      12.71977804      20.96820509 
H      32.39158298      13.07426115      22.70420365 
H      31.58075921      21.04033698      15.89394357 
H      32.13411680      19.67009742      16.91246831 
H      32.06659963      19.48705158      15.12352148 
H      27.87061504      22.42858308      35.64109966 
H      29.02045140      23.62004044      34.93536249 
H      27.25704178      23.81380074      34.67392139 
H      21.92999972      30.08728050      35.17798320 
H      22.14878167      29.10226512      36.67185863 
H      23.55081583      29.92725846      35.92058895 
H      12.53704976      32.24033830      25.09874302 
H      14.19917614      32.25080887      24.41094455 
H      12.82375942      31.65456102      23.42914992 
H      17.33077959      17.38925399      14.86978678 
H      17.90293081      16.39566444      16.24126897 
H      16.24339228      16.15570221      15.58805371 
H      32.44355197      24.87663346      18.00028639 
H      34.10439233      24.92118420      18.67964913 
H      33.61708761      23.59069835      17.57566562 
H      27.22234200      33.17266582      33.25261385 
H      25.91288683      32.58776553      34.33100486 
H      27.62300640      32.51181051      34.87794478 
H      21.67868770      34.10983785      31.38627219 
H      22.26018255      34.74309340      32.96356775 
H      23.42227228      34.45070295      31.62273478 
H      16.02188026      33.53780050      18.12194655 
H      17.79633688      33.79416919      18.09237877 
H      16.87881177      33.63101633      16.55368786 
H      11.02561480      22.74874747      20.53365555 
H      10.37899743      21.15526349      21.03941938 
H       9.46749584      22.65911716      21.42252535 
H      27.39781112      12.89231765      27.63408083 
H      26.27035795      11.68704731      28.31776568 
H      26.77949439      11.57238549      26.59796192 
H      35.93831922      28.75138787      28.69706823 
H      34.45444156      28.47604822      29.67591330 
H      35.03264938      27.20500676      28.55738932 
H      28.21282351      27.03485209      35.59987281 
H      29.08869926      28.37728340      34.78806450 
H      27.32054727      28.22284973      34.59266176 
H      23.15438656      25.13990684       9.52087892 
H      23.93028780      23.54985660       9.22594212 
H      22.26965185      23.62679619       9.89498078 
H      26.02025839      25.93542540      11.24314038 
H      26.55753766      27.54616664      11.83017159 
H      27.70382812      26.48811542      10.93380602 
H      18.28519272      33.24957892      32.36886846 
H      17.39706386      34.36508980      31.27333459 
H      17.18139043      32.58967203      31.11965196 
H      30.35083712      17.98691513      34.53456621 
H      29.84765634      19.54723976      33.78806483 
H      28.72233473      18.66772332      34.86233857 
H      18.89736050      34.55230392      24.35484886 
H      19.84391243      35.82280321      25.18306802 
H      19.98156497      35.61121039      23.40352613 
H      32.36271206      32.17587846      29.91206141 
H      33.30188296      32.06476142      28.38834184 
H      32.71152269      33.66452179      28.95982195 
H      29.52343555      31.38488965      14.79930424 
H      28.82417505      29.96365956      13.96106039 
H      27.74416520      31.11788321      14.78960363 
H      34.24296123      15.53017929      25.52653329 
H      35.58626213      16.67044965      25.21636216 
H      34.21942436      17.15414572      26.27849947 
H      34.89826643      21.49631668      21.08457205 
H      35.88469239      22.85006148      21.69865271 
H      36.48991802      21.16763521      21.86381066 
H      17.09343025      12.46539987      26.14873919 
H      16.84184395      13.61624419      24.80734822 
H      17.77091068      12.10868145      24.52292107 
H      22.69304452      35.11745559      19.07055370 
H      21.18310276      35.95508678      19.56211269 
H      22.13234611      35.00537547      20.76404844 
H      12.46257001      18.42773781      17.38668281 
H      13.15247933      17.35601487      18.63110731 
H      11.37691099      17.65327608      18.58385517 
H      18.79128687      30.66428735      36.11386007 
H      17.88060613      29.20056854      35.60551453 
H      19.66282203      29.18415917      35.56941413 
H      34.05893543      30.53741253      24.21304836 
H      34.04858925      31.89645937      23.02807967 
H      33.42853697      32.14341551      24.69179229 
H      35.88346932      28.23736934      21.20132700 
H      34.97282940      29.40297065      22.19825993 
H      36.70351336      29.06772434      22.56765807 
H      31.91559039      28.91978264      33.45689163 
H      33.35922985      29.67890185      32.72710026 
H      32.26935993      30.65082924      33.76298141 
H      21.29956410      11.68068116      23.98506598 
H      20.65937720      12.91328146      22.85038400 
H      21.72513593      11.60247025      22.23820277 
H      33.35856889      17.25666607      19.30824968 
H      34.19416392      18.41017214      20.40474962 
H      32.91554552      17.33082423      21.03806146 
H      27.34531999      12.61228460      17.25488002 
H      28.98529955      12.17763676      17.85029567 
H      27.70399386      12.65770384      19.01226535 
H      13.30055596      30.30461861      30.41415979 
H      14.04086625      28.68009752      30.17945802 
H      14.66335293      29.76972450      31.45152383 
H      32.79590420      20.12909878      32.02583150 
H      33.08800901      20.21764058      30.26366273 
H      33.88107633      21.39315093      31.35143496 
H      19.07499133      24.49448291      13.14063898 
H      18.16196448      25.94081504      13.68635621 
H      18.93855554      25.93041823      12.06347994 
H      15.95308014      29.01414806      16.89248046 
H      16.23920600      28.80171497      15.14066954 
H      14.93292255      27.87954758      15.96039886 
H      26.87353169      10.54131247      22.68498314 
H      25.62182548      11.64721612      23.35918882 
H      25.61102544      11.24203853      21.61901305 
H      14.52107396      34.06280263      26.09533027 
H      14.90736051      33.18992145      27.61216147 
H      15.32485240      34.93092339      27.43884542 
H      15.10495651      21.40374562      33.63273148 
H      14.57048898      19.89975426      32.80800079 
H      16.31350580      20.21766938      33.04660863 
H      21.99313027      16.00232524      13.57677195 
H      22.76996645      15.04688093      14.87603266 
H      21.10454674      14.63466673      14.32122893 
H      22.42031575      29.72723323      13.23112570 
H      23.45921788      30.00297971      11.79300102 
H      22.98013140      28.33163966      12.25425638 
H      19.37162223      20.21427954      12.82102517 
H      20.82773257      20.97576300      12.09378864 
H      21.00044206      19.85343845      13.47445393 
H      22.56213301      33.12882519      14.73507743 
H      20.82341038      33.56286407      14.57124585 
H      21.56540327      33.40376046      16.19920950 
H      23.99467603      36.36760733      27.54804329 
H      24.93973465      35.24970365      26.49934433 
H      23.17964551      35.46193630      26.22300914 
H      11.87470270      16.22697735      30.89005263 
H      11.85120152      18.00737420      31.09330136 
H      10.97918045      17.25189419      29.72184971 
H      26.04344841      35.00390477      21.22393423 
H      25.67479716      35.35760738      22.95042184 
H      26.71767589      33.96696705      22.52259909 
H      30.00588425      21.64449727      11.58624723 
H      29.34802396      20.08359102      11.00103498 
H      28.76823732      21.62505092      10.29071401 
H      15.37044290      21.45293942      15.30415673 
H      16.56402328      22.49199739      14.45353049 
H      17.12695814      21.14542065      15.49463336 
H      28.33541611      15.93000837      15.40477297 
H      27.99922228      15.44994582      13.70849019 
H      28.31667975      17.17380202      14.11244374 
H      15.28900024      12.13531033      30.31257650 
H      16.65994706      11.63034379      29.27489849 
H      16.86939407      11.71982288      31.05216974 
H      30.85613256      13.58046463      30.59177814 
H      30.06517727      14.71921236      31.72906529 
H      29.65128400      12.96880911      31.76511938 
H      27.98122143      35.96592512      29.73758538 
H      27.12720776      36.06679423      31.31083121 
H      28.86893031      35.64195401      31.26152002 
H      32.66372591      28.84022635      17.28092960 
H      31.52089043      29.86288681      18.19792220 
H      33.28974419      30.16196648      18.32029899 
H      26.70236393      15.91400851      34.17058665 
H      25.25122474      15.41955803      35.10329816 
H      26.47717430      14.19267042      34.62925109 
H      12.77894998      29.68519812      21.12102699 
H      13.24122051      31.15947735      20.21342705 
H      12.07943892      29.99893386      19.49437525 
H      12.32775084      27.42867036      25.81493413 
H      11.16130057      26.35329711      26.63864991 
H      11.93310165      27.70518353      27.53750744 
H      36.10839670      19.91863433      25.94183447 
H      36.94984741      20.05255942      27.52575159 
H      36.10043367      18.53902548      27.08649864 
H      29.91433353      25.50624651      14.65400015 
H      31.64270798      25.06566003      14.84383376 
H      30.58502564      24.13316067      13.73033355 
H      19.75659134      23.90121360      35.80044596 
H      19.17145324      25.16647920      36.93575996 
H      18.00720012      24.08434047      36.11087727 
H      36.78547372      25.74279929      25.53795911 
H      37.47652953      24.29044454      26.34117663 
H      36.24946915      24.10372093      25.04463858 
H      19.92991113      19.78109590      36.95195471 
H      18.88058071      18.82471320      35.85783459 
H      20.65760628      18.62329916      35.77676896 
H      32.53453311      24.66237724      32.62436416 
H      33.33074512      26.25542660      32.82100777 
H      31.54524909      26.11471569      32.94049624 
H      26.00246978      19.35403528      11.65281890 
H      25.23469597      17.78202698      12.05694632 
H      24.69195857      18.70156334      10.60897798 
H      14.88108270      33.55625617      21.86152621 
H      15.78204067      34.61448685      20.72973345 
H      15.70657773      32.84050682      20.44196796 
H      15.24619911      26.05595271      33.02973028 
H      14.25152252      24.83559082      32.15875684 
H      15.98611015      24.51826889      32.46688365 
H      11.09763909      26.86055946      20.69274073 
H       9.72415314      26.99409020      21.84606931 
H      10.71914334      28.43310481      21.46845528 
H      22.44155014      11.72071759      17.32894680 
H      22.20447435      13.15626423      16.29635595 
H      23.28098861      11.82211862      15.74441031 
H      12.43986777      23.38335466      17.24843550 
H      12.05798741      25.10117566      16.91157564 
H      13.76036481      24.51840405      16.85013317 
H      22.57763566      11.92518888      27.77546395 
H      21.29666008      11.11536073      28.74547551 
H      20.85371733      12.10779384      27.31006194 
H      16.71719201      14.92621618      32.54427044 
H      17.66180798      15.61344196      33.90883248 
H      15.86491074      15.58782004      33.98350980 
H      13.15167626      16.33695174      20.83441904 
H      13.56359686      14.77691574      20.02929433 
H      13.52714013      14.89290899      21.81875330 
H      12.78304796      14.01290527      26.39467708 
H      12.77839516      15.56765730      27.29977497 
H      12.53536244      15.56527934      25.51936175 
H      27.63872878      33.01612710      16.17763263 
H      26.88224314      34.12452727      14.98145223 
H      26.95042824      34.56572195      16.71852649 
H      31.80182931      14.05982016      24.84841004 
H      32.08182771      13.57950598      26.55154985 
H      31.65118367      12.33481545      25.33578701 
H      18.21960446      12.86789340      18.10032711 
H      17.93655715      12.79229996      19.86992432 
H      17.70436937      14.33713047      18.99928210 
H      29.06398749      34.88342769      24.67721523 
H      29.09062737      34.89687443      26.47138090 
H      29.67191325      33.46322224      25.58310995 
H      12.17292208      23.58973083      28.91029784 
H      11.18501061      22.15493579      29.35932645 
H      12.84837055      22.35029771      30.01907056 
