699
Properties=species:S:1:pos:R:3 i=148 optimized=T E=-11709.4895682052 pbc="F F F" jobid=279_84-Ag-90_0-000003-PBE
Ag      33.16606817      25.39628670      25.95209345 
Ag      31.98138612      29.16699656      21.53428497 
Ag      34.46954111      28.08359996      25.42047871 
Ag      29.70051774      14.94065276      19.61947968 
Ag      33.83241137      19.40147625      23.75961202 
Ag      27.13308044      23.27306379      13.29359643 
Ag      18.19085736      33.17005173      28.15606483 
Ag      28.42356663      30.63338208      18.22216346 
Ag      24.94697697      21.23229743      23.25135018 
Ag      26.26411096      23.26611284      24.91144112 
Ag      28.17699731      25.07242244      23.62769987 
Ag      23.79553079      21.65607300      28.99840686 
Ag      23.34166159      27.88582648      26.97150735 
Ag      26.87414904      23.06098631      21.99962714 
Ag      22.40349002      19.60512506      27.37345025 
Au      27.18221700      21.14924015      26.73405096 
Ag      22.05077668      21.50991569      22.72295124 
Ag      21.03931742      23.57301306      20.86452507 
Ag      27.65532876      25.30426970      26.56860904 
Ag      19.98570429      24.06156462      26.67656630 
Au      25.46030279      21.03663343      20.36350308 
Ag      24.27511938      25.76803942      28.77994659 
Ag      23.86264967      27.68517058      24.06831793 
Ag      26.19699195      27.58674651      27.57267669 
Ag      20.92608540      21.92605650      28.41940473 
Ag      22.87512947      23.75672274      27.18392397 
Au      21.48402018      21.72654568      25.59119498 
Ag      19.53477352      19.88822677      26.87689695 
Ag      25.84285435      19.12790560      25.07291124 
Ag      25.22866596      23.65037009      30.68794693 
Ag      22.97876565      25.38841991      19.60062799 
Ag      20.99007374      27.95049584      23.51504779 
Ag      26.69633911      27.34244954      24.69331602 
Ag      22.59393852      21.30778892      19.84066172 
Ag      21.93899641      25.88063348      25.35987739 
Ag      27.17650255      25.46830453      29.43779612 
Ag      20.12064798      19.70661176      24.03678137 
Au      25.85859971      25.10316648      20.20463282 
Ag      23.54506800      19.22373777      21.67719098 
Ag      22.33276168      23.93772563      30.01511768 
Ag      21.03443979      17.53447356      25.80212469 
Ag      21.50704784      27.68322549      20.60401979 
Ag      24.38775501      27.41075806      21.24125911 
Ag      24.47912885      23.10921267      18.54999711 
Ag      28.62253750      23.17311244      28.45182074 
Ag      18.62003478      22.00396055      25.07712149 
Ag      26.70161506      21.30048935      29.60086229 
Ag      22.41343262      30.03910122      25.10415585 
Ag      27.23493540      27.12148677      21.81055858 
Ag      21.81404367      19.80819672      30.24415783 
Ag      18.47577522      26.41571212      27.66259710 
Ag      23.15350506      21.80313346      31.85733732 
Au      21.57572994      23.37843928      17.97604774 
Ag      17.08551640      24.34649653      26.16282915 
Ag      27.42626963      22.84771360      19.10436847 
Au      23.90050050      17.23356558      26.29689527 
Ag      23.29324375      17.54361421      29.21135547 
Ag      25.22865408      29.71082106      25.70357928 
Ag      21.62625600      17.32189681      22.94711581 
Ag      28.73647534      18.81974754      25.67854705 
Ag      22.86030521      29.78502445      22.24499820 
Ag      25.33256212      25.33564194      23.07365117 
Ag      20.06024253      25.66168653      18.99310791 
Ag      29.61807653      27.12485592      25.31758462 
Ag      19.37593766      24.27171182      29.52559815 
Ag      18.02151597      22.23768747      27.93467684 
Ag      19.98922160      28.35196559      29.23400544 
Ag      23.72425770      25.90988408      31.61481197 
Au      20.93480057      26.28180885      31.06102279 
Ag      26.43716633      18.99313058      22.18571589 
Ag      24.65719506      19.55697300      30.79861582 
Ag      20.41355473      17.78942721      28.68091663 
Ag      28.85699061      24.82913844      20.73400487 
Ag      19.58169065      30.25798033      24.57500556 
Ag      25.76051886      29.52724450      22.82467882 
Ag      24.94040800      27.19716394      18.30486181 
Ag      28.42505794      20.79819184      20.90421758 
Ag      29.09214778      27.36484861      28.20786957 
Ag      30.02125078      20.87385933      27.29439936 
Ag      18.16115181      23.89553080      20.33254212 
Au      17.78785463      19.70888729      20.67362452 
Ag      25.64816014      27.74180579      30.43465725 
Ag      28.08194564      23.38982246      31.28140720 
Ag      21.89381003      30.17213029      28.03395441 
Ag      21.76459588      24.15154302      32.84041077 
Ag      18.67683644      27.93099939      20.04942947 
Ag      16.35731008      22.02883426      21.67971386 
Ag      30.53078739      25.06728899      27.13233155 
Ag      23.40785750      23.53954206      24.31337253 
Ag      20.05902813      30.02297295      21.62806342 
Ag      16.67696913      20.11918130      26.36311607 
Ag      26.70647251      17.01966676      26.90890290 
Ag      29.99541987      25.20414489      29.96973904 
Ag      17.60124239      28.50153204      25.87359313 
Ag      16.20609840      26.35537959      24.29453572 
Ag      28.53952876      29.14057453      23.40192562 
Ag      27.82406636      26.86279668      19.00229629 
Ag      24.12260552      18.98074454      18.68386124 
Ag      27.37715212      16.85526928      23.96893907 
Ag      26.96240319      18.79378137      19.30153129 
Ag      25.94944399      21.45208163      32.51151884 
Ag      12.72938942      18.75558168      22.10212093 
Ag      23.09544811      21.09250086      16.96436013 
Ag      26.31605584      29.17600841      19.92101142 
Ag      19.99972967      19.65527911      32.43005286 
Ag      26.10976005      17.22970618      29.75805847 
Ag      29.29407318      18.70630845      22.73614000 
Ag      27.59419613      29.61448315      29.23538551 
Ag      15.27543401      22.47560429      27.38809729 
Ag      26.00011127      20.86080761      17.43270515 
Ag      24.52506750      23.84462420      33.46440011 
Ag      23.57569225      25.15539298      16.67724852 
Ag      17.58133881      18.02182371      28.16740629 
Ag      19.10157704      30.47124196      27.44490346 
Ag      23.47437312      29.45188512      19.41128523 
Au      22.43957495      25.63337121      22.46786578 
Ag      16.14378506      20.26066108      29.25110583 
Ag      27.46230766      19.18512595      31.41117150 
Ag      29.13281874      28.89876048      20.57285138 
Ag      16.52935923      24.56072314      28.99349963 
Au      31.89191287      22.79247685      26.07379852 
Ag      16.71773909      21.65741432      18.83854567 
Ag      24.87068966      31.52142448      20.83787410 
Ag      21.97065067      31.75660800      20.29278110 
Ag      20.71715183      25.38337226      16.20353447 
Ag      24.32519365      31.84262765      23.87790394 
Ag      20.59343251      29.71979973      18.74244117 
Ag      23.16437947      15.16681710      21.70113982 
Ag      30.34750889      22.59300698      19.64291905 
Ag      25.05699016      22.90617786      15.62189016 
Ag      18.73704855      23.59056215      17.39980686 
Ag      28.84329613      20.67283034      18.05508505 
Ag      17.53851128      22.46235183      30.86489159 
Ag      17.16148564      28.74549665      28.74517312 
Ag      27.93446926      16.77299354      21.08959819 
Ag      15.59623325      26.85249291      27.07264257 
Ag      18.97945982      15.75206086      27.10674776 
Ag      19.64001477      15.53535175      24.10092446 
Ag      18.11938162      26.68904982      30.64923185 
Ag      20.24902325      15.44144608      21.29321042 
Ag      27.23760166      31.48477805      24.36486813 
Ag      24.78515841      15.14535711      28.30585688 
Ag      23.95442824      23.31899982      21.44504569 
Ag      20.20595203      21.18405498      16.37350304 
Ag      27.88554227      22.74151749      16.09939842 
Ag      31.34266126      20.43677696      21.65342061 
Ag      26.78153789      31.67289983      27.40111312 
Ag      25.62233967      14.95735021      25.21665440 
Ag      28.64491477      16.16377669      28.81817286 
Ag      26.05668003      14.88992507      22.29149032 
Ag      32.60550154      22.57360349      23.27635319 
Ag      25.65991435      30.47825033      31.26430519 
Ag      22.88751297      30.88656564      30.69477080 
Ag      24.20687713      16.99878062      31.91469083 
Ag      31.29071050      17.89430845      24.77345167 
Ag      17.09369385      26.02470822      18.57330246 
Au      31.57290609      22.81916009      28.82387177 
Au      29.31612580      16.08199146      25.94619147 
Ag      15.58271635      29.22891171      23.96773766 
Au      16.07583398      28.90669348      21.10753288 
Au      17.10417069      31.28100313      25.54664915 
Ag      29.36384752      24.74925505      17.85931148 
Ag      30.66370539      18.04794423      27.64240633 
Ag      18.57397363      17.56896037      30.88454843 
Ag      23.92688642      19.66848281      33.52809217 
Ag      18.00153461      30.67929032      19.76126155 
Au      17.51309162      30.98326393      22.62553876 
Ag      14.17246576      27.09173234      22.45231425 
Ag      32.62297722      20.01008770      26.40518165 
Ag      24.80246150      25.57268646      25.94529945 
Ag      32.84499879      26.70563098      23.23174353 
Ag      24.84792907      20.09030328      14.92529103 
Ag      20.05718601      31.03526979      30.09902035 
Ag      31.79990131      27.71325555      27.15509518 
Ag      23.83352362      28.63040133      32.51755568 
Ag      29.91998757      15.92386807      23.04415664 
Ag      22.41902972      17.15984798      34.39638073 
Ag      13.91591214      19.76502461      27.38989083 
Au      24.10402977      27.84043796      15.64983715 
Ag      15.42636107      17.59891166      30.32264873 
Ag      25.59982534      25.59633624      14.66652130 
Ag      28.57030984      30.34912337      32.14462267 
Ag      22.73270170      30.10893456      16.79179147 
Ag      22.03358660      21.83305741      34.72492064 
Ag      31.12638352      28.25750659      30.20308860 
Ag      20.02868019      15.10909056      29.80805701 
Ag      22.66334504      25.80751087      13.94621933 
Au      16.45379876      14.96202808      28.40800911 
Ag      25.01864099      32.78863884      29.46304493 
Ag      26.55740468      14.67356993      31.12665866 
Ag      28.43816025      13.59819803      24.12418649 
Ag      16.32004964      17.22464001      19.54470748 
Ag      16.14554648      17.31105307      23.28975834 
Ag      20.82490127      16.07897606      17.48355944 
Ag      11.95805103      24.44581760      23.08903096 
Ag      14.76087606      29.99375050      26.88801988 
Ag      24.35101557      21.42390568      26.13263666 
Au      15.04065811      19.86833018      20.35356087 
Ag      25.35738337      31.06299978      18.04341779 
Ag      27.83986379      19.90666916      15.30290006 
Ag      30.10359369      26.93096313      22.44061700 
Au      31.01508961      24.84504333      24.20815807 
Ag      31.72522478      24.71335306      21.41820297 
Ag      20.52163233      23.82733650      23.77550422 
Ag      25.33295027      15.24427824      15.74790719 
Ag      30.71980062      29.75174193      25.15676078 
Ag      25.73678973      23.45314731      27.81885513 
Ag      27.03005024      27.54721052      16.34972293 
Ag      20.86462751      31.34987996      33.03171099 
Ag      17.68777314      24.06403478      23.25981540 
Ag      22.98077415      19.37941119      24.50757420 
Ag      27.79089415      20.96300397      23.83435491 
Ag      19.58264461      25.89418716      21.92093522 
Ag      25.05040133      30.85406421      14.99424097 
Ag      25.23408503      19.31308572      27.93733640 
Au      19.05311302      26.13543530      24.82121446 
Ag      20.51067423      28.17667499      26.37952563 
Ag      21.41202166      26.04680618      28.20388940 
Au      29.05038504      23.03459134      25.52440023 
Ag      19.19349617      21.80197830      22.18590434 
Ag      24.56135295      17.08215644      23.45270544 
Ag      22.82407023      28.14514452      29.88655514 
Au      20.67123032      19.52639024      21.14715643 
Ag      20.35986858      22.20246168      31.23039660 
Ag      24.76874654      29.91951806      28.63120891 
Ag      18.08623775      28.23097551      22.96542311 
Ag      28.11401905      18.98865691      28.57560381 
Ag      18.97757469      20.15022662      29.73011963 
Au      29.75722232      22.73069805      22.58123461 
Ag      19.66455870      21.53781053      19.21330268 
Ag      18.19506851      17.84515886      25.26034450 
Ag      15.78069509      22.23334508      24.52487455 
Ag      16.68175406      26.12474716      21.39518155 
Au      26.45280300      24.90958974      17.31370091 
Ag      28.05026694      29.36688604      26.24916953 
Ag      17.21674086      19.94146182      23.51495709 
Ag      18.83123529      17.68072390      22.43404897 
Au      30.68388207      20.66970673      24.42735109 
Ag      22.10804341      27.46092539      17.75210841 
Ag      21.18652127      19.28944448      18.26117930 
Ag      22.18321143      17.28984779      20.05006171 
Ag      21.93662257      15.54006689      27.55341665 
Ag      18.97473582      24.45487254      32.37111868 
Ag      26.45718439      25.66341696      32.35683649 
Ag      14.85848124      24.28595695      22.75125533 
Ag      29.57599087      20.83690776      30.18119881 
Ag      23.83695161      31.92999652      26.75505627 
Ag      22.56526536      15.19884629      24.72677651 
Ag      25.04999503      16.96463825      20.56174458 
Ag      28.44575832      27.58587134      31.09999110 
Ag      19.30391237      17.50106702      19.57135696 
Ag      27.72457045      31.18057301      21.53797612 
Ag      15.30798541      24.04857765      19.89771363 
Au      21.37648431      17.24256183      31.40260971 
Ag      21.29363674      32.10531336      23.15711415 
Ag      14.16717071      24.50204872      25.50273461 
Ag      22.25055321      23.07868715      15.04572613 
Ag      30.64610009      26.71758597      19.54190646 
Ag      18.35781905      19.44023367      17.72440357 
Ag      22.89779605      18.27479616      16.21558257 
Ag      15.50035935      17.51596967      26.17220151 
Au      30.20078825      29.97538769      27.97365418 
Ag      29.82867188      18.44944625      19.74451962 
Ag      13.72968190      21.61839392      22.55896089 
Ag      30.21520200      17.74002132      30.83223541 
Ag      26.83364674      16.04754342      18.53199582 
Ag      20.94122745      32.31462646      26.28472429 
Ag      19.24433863      27.83107931      17.06231529 
Ag      25.89135944      18.03385512      16.64118550 
Ag      14.53894279      19.56508442      24.43787367 
Ag      19.11941703      33.20936273      20.86127007 
Ag      23.93064969      22.27877813      12.78911810 
Ag      34.42607607      22.61763078      27.48504277 
Ag      28.88519398      32.48187535      29.33636369 
Au      19.37704044      31.16207800      16.47389177 
Ag      23.83529881      16.10399025      18.11004363 
Ag      14.09886547      26.99290708      19.47424126 
Ag      20.87022791      26.69691579      34.14085768 
Ag      19.84304501      28.66265091      32.04283951 
S      20.54737588      16.00203446      33.42810787 
S      28.47956691      32.60672649      19.64495046 
S      24.03700836      22.83206081      35.67851178 
S      24.20580976      18.27519109      35.55282595 
S      12.58433374      17.95549064      24.36320175 
S      32.20697923      17.47313041      29.48340902 
S      31.34897451      14.80583581      21.36215095 
S      29.63248475      18.76660135      16.66797760 
S      28.28794632      21.85121823      33.25825466 
S      23.02783359      27.68185752      34.66295032 
S      13.41029483      30.02728987      24.86264895 
S      16.34718058      18.05832721      17.24913060 
S      32.79127324      23.16533527      19.80063239 
S      26.58986440      30.42190596      33.56217294 
S      22.95427869      32.46539112      32.65805894 
S      17.28274152      31.45316222      17.51122591 
S      11.33413127      22.12288854      22.90286687 
S      25.18329646      13.14037005      26.83767231 
S      33.85315785      29.12196321      27.49130090 
S      28.67243858      26.31070515      33.27468310 
S      23.70754176      24.58333773      12.05297638 
S      27.52994522      25.66308220      13.13193142 
S      19.10780666      33.30411162      30.37643235 
S      28.70299644      17.47962697      32.71345900 
S      21.19186500      34.13384564      24.58542540 
S      30.82830681      32.34299748      27.86616726 
S      28.92252138      29.13600392      16.37641772 
S      33.51305839      17.01947558      24.10516475 
S      34.85212425      21.55461884      23.37115860 
S      19.47003169      13.67967290      25.75359207 
S      20.83545738      33.69283959      19.23078766 
S      12.72654840      19.41941864      19.77814467 
S      18.77431860      30.28450727      33.56245356 
S      31.70095458      30.90659170      23.20470957 
S      35.24441283      27.22720134      23.30734395 
S      30.87706301      30.40638907      31.43612287 
S      23.16589597      13.23613486      23.26561311 
S      32.25045755      19.12400839      19.77441600 
S      28.44244364      14.40731413      17.63407800 
S      15.45351632      30.48638054      29.16290902 
S      31.63811769      21.95793890      31.10098208 
S      20.56113505      27.12888406      14.44307450 
S      16.99107604      26.99438910      16.30018644 
S      27.45230241      12.85437385      22.04530933 
S      16.75054385      33.60441290      26.26700750 
S      15.13078377      21.82493122      30.95595733 
S      20.90319065      17.13275139      15.26831382 
S      24.84061904      28.96036712      13.53291096 
S      19.95334717      22.43672680      14.23377328 
S      21.31212869      31.30418727      15.13631814 
S      23.08757074      33.78006930      28.23792105 
S      13.47169996      17.83769080      28.89412553 
S      24.27076943      33.59245798      22.07740025 
S      27.52418645      20.89986244      13.03545603 
S      16.34733477      23.10128758      16.86319315 
S      26.34478141      16.92210223      14.36960707 
S      17.70235421      14.35144336      30.32198546 
S      28.57754369      13.98747203      30.00797802 
S      27.09217506      33.35475439      30.71316926 
S      32.78581477      27.98989372      19.56286930 
S      24.87316783      14.80451945      32.84600966 
S      14.34300929      29.41946784      19.43983683 
S      13.28937362      25.98006660      27.33215522 
S      34.64408593      20.21650849      27.80933690 
S      30.34199290      23.33336970      16.04898691 
S      18.62392799      25.80063636      34.43332124 
S      35.27951743      24.86251718      27.10466313 
S      19.81380563      20.85485053      34.58807126 
S      32.24886998      26.08352903      30.52388574 
S      23.57001835      19.87540929      12.82295096 
S      17.09984470      33.37288797      22.19651849 
S      15.67021751      26.32287929      30.56137782 
S      11.76610799      26.84325690      22.98391688 
S      24.22616686      13.75656658      17.26803627 
S      13.04654061      24.82187699      19.23394047 
S      22.31198692      14.03960046      29.51661966 
S      16.65264187      17.69861777      32.42155858 
S      15.91420687      15.71016112      21.41628916 
S      15.16131396      15.07257172      26.43836446 
S      25.35353120      32.83623860      16.31599648 
S      29.86127330      13.68712106      26.09582105 
S      20.25806941      14.29415779      19.07608803 
S      26.94401723      33.55146269      25.72427143 
S      12.90606843      21.98418597      26.77077901 
C      21.11264207      14.25838836      33.32655611 
C      30.25715680      33.00716478      19.90415560 
C      23.46419869      24.16743195      36.80788125 
C      23.47186135      19.15490914      36.99061329 
C      11.10590592      18.81691084      25.03774312 
C      32.49489719      15.65946005      29.38329513 
C      31.43581013      12.99514544      21.66974297 
C      31.26552770      19.32272496      16.03278339 
C      28.16728754      22.77100759      34.84667602 
C      22.76156659      29.09352544      35.80954151 
C      13.33627217      31.79374868      24.35711243 
C      16.84686968      16.67355697      16.14799139 
C      33.36625880      24.12468300      18.34261398 
C      26.47454302      32.13527867      34.21388917 
C      22.46509550      34.14644255      32.09808102 
C      17.11657079      33.28311299      17.47344220 
C      10.55553539      22.10710578      21.23397338 
C      26.71578183      12.26698507      27.33336630 
C      34.92474637      28.30254701      28.73943214 
C      28.44326749      27.33803256      34.78211894 
C      22.36428660      24.52527851      10.79391542 
C      26.94546118      26.26287135      11.49878964 
C      17.58723046      33.11075690      31.39650910 
C      29.50171202      18.33072429      34.13330802 
C      19.59132480      35.00195833      24.37570142 
C      32.35669108      32.53689573      28.85999502 
C      28.86806954      30.12553659      14.82857687 
C      34.41049534      16.61918989      25.65963670 
C      35.54687408      21.45620376      21.67239225 
C      17.95130708      12.68828686      25.45041492 
C      21.66367554      35.22281406      19.82602114 
C      12.71184488      17.90316871      18.74131291 
C      18.87927717      29.64984513      35.28475889 
C      33.37587320      31.46958779      23.71174301 
C      35.62643070      28.65277517      22.21323994 
C      31.82843144      30.13422396      32.98995565 
C      21.67777601      12.22082192      22.90359174 
C      33.30244598      17.75591624      20.39259876 
C      27.77628825      12.73825153      18.03355462 
C      14.15762907      29.78874703      30.26311708 
C      33.04997175      20.79193622      31.19517154 
C      19.23180403      26.51918022      13.32966567 
C      15.77980373      28.36374810      16.17398582 
C      26.42530793      11.38876335      22.46631742 
C      15.11468564      33.79747110      27.08103418 
C      14.77857482      20.99588928      32.55943387 
C      21.50527835      15.90309917      14.04102525 
C      23.34381144      29.30859351      12.52805487 
C      20.00277921      21.25960481      12.82197178 
C      21.72655180      33.08831505      15.30749048 
C      23.68177094      35.30069243      27.39309442 
C      12.19855776      18.52908420      30.03132918 
C      25.79042191      34.62740450      22.12143005 
C      29.21342265      20.81914392      12.30460203 
C      16.23937146      21.94966206      15.43458038 
C      28.09086456      16.36203886      14.23716670 
C      17.82868984      12.52125200      30.16425832 
C      29.77170767      13.91517169      31.40403559 
C      27.18842825      35.18949559      30.55681197 
C      32.72246885      29.19889754      18.17686776 
C      25.90332460      15.13825682      34.33423465 
C      12.91789636      30.07604984      20.39663746 
C      12.02995149      27.14599684      26.68874380 
C      36.15693958      19.84533706      26.83016425 
C      30.77855393      24.38458810      14.60450831 
C      18.70261606      24.65641299      35.87185675 
C      36.50790734      24.57130168      25.76380769 
C      19.68051259      19.59646017      35.92149306 
C      32.43749434      25.83772131      32.33383536 
C      24.65634764      19.11910044      11.55089222 
C      15.69597903      33.43829226      21.01308465 
C      15.18651705      25.58442688      32.17411776 
C      10.71850253      27.08414421      21.49145696 
C      22.76099721      13.03147286      16.42967769 
C      12.86725480      24.54289716      17.42618964 
C      22.07539128      12.35487596      28.81947745 
C      16.48450579      16.10168123      33.31088584 
C      14.15764975      15.18011197      21.31026604 
C      13.41733546      14.75380077      26.90804142 
C      27.07545497      33.42112586      16.04578937 
C      31.58745172      13.51775556      25.48992796 
C      18.55161457      13.72010869      18.70261613 
C      28.53740496      34.46492670      25.81243270 
C      11.92890981      22.55259708      28.22088784 
H      22.15921820      14.19164292      33.00850577 
H      20.99624691      13.81021593      34.32027239 
H      20.47369512      13.73290516      32.60630470 
H      30.72415047      33.21680678      18.93572543 
H      30.30531904      33.90413737      20.53306647 
H      30.78633283      32.19123847      20.40897282 
H      24.35319669      24.61127187      37.27158798 
H      22.91874369      24.94843491      36.26639133 
H      22.82721206      23.73210923      37.58546380 
H      23.30240155      18.42879283      37.79357853 
H      24.18927861      19.91580762      37.31829484 
H      22.52971501      19.64983561      36.73340994 
H      11.14380980      18.73993721      26.13136070 
H      11.08652637      19.87215692      24.74413066 
H      10.21036075      18.30839516      24.66328100 
H      33.32112161      15.49610048      28.68101752 
H      32.78354820      15.28851023      30.37308350 
H      31.60586110      15.12454465      29.03036989 
H      30.44503349      12.57012200      21.86646272 
H      31.87521129      12.51722140      20.78673626 
H      32.09008072      12.82775955      22.53295928 
H      31.23439074      20.38018757      15.74588003 
H      32.00335989      19.18490646      16.83371719 
H      31.53039689      18.70342069      15.16823543 
H      27.33766820      22.38235271      35.44732844 
H      29.11456127      22.62556851      35.37946016 
H      28.02215428      23.84036148      34.64913465 
H      22.14049324      29.87437930      35.35235966 
H      22.28757451      28.73029428      36.72834966 
H      23.74505156      29.51551162      36.04902221 
H      12.69464510      32.33923062      25.05852318 
H      14.33210132      32.25008097      24.33032324 
H      12.89042276      31.83505771      23.35605775 
H      16.89107807      17.05864294      15.12242372 
H      17.83246148      16.27750373      16.41840076 
H      16.09444461      15.87948738      16.20803356 
H      32.57707675      24.15761451      17.58080630 
H      33.64611058      25.14136518      18.64005360 
H      34.24141815      23.60203636      17.93755560 
H      26.81789063      32.85726432      33.46474161 
H      25.42552695      32.33972879      34.45726445 
H      27.09313307      32.20215545      35.11599216 
H      21.58103958      34.11563003      31.45175210 
H      22.25548472      34.75324494      32.98624925 
H      23.30531788      34.57919165      31.54170458 
H      16.19161029      33.53998390      18.00274743 
H      17.97007809      33.77434777      17.95433234 
H      17.03772236      33.60508360      16.42916159 
H      11.14676487      22.68038276      20.51128507 
H      10.47777648      21.06761966      20.89467920 
H       9.55437762      22.54435904      21.32090992 
H      27.53860529      12.95576374      27.54355038 
H      26.50309182      11.68613642      28.23833872 
H      27.00950608      11.58914825      26.52268478 
H      35.87565597      28.84618721      28.77666818 
H      34.42257697      28.35773913      29.71246002 
H      35.10681001      27.25215325      28.48545822 
H      28.18672315      26.67361457      35.61542206 
H      29.38938229      27.84613534      35.00351588 
H      27.65581983      28.08676183      34.64818631 
H      22.17727805      25.54566956      10.43936306 
H      22.69434422      23.90391856       9.95356464 
H      21.44388033      24.11266663      11.21961420 
H      26.02155454      25.75601355      11.20021813 
H      26.75757688      27.33969857      11.58419330 
H      27.73541115      26.07701268      10.76222735 
H      17.88452716      32.85054560      32.41920736 
H      17.05371731      34.06798141      31.39547493 
H      16.93686835      32.32486025      30.99593714 
H      30.46795065      17.85959753      34.34270460 
H      29.63327648      19.39894401      33.92653778 
H      28.83974805      18.21398588      34.99987483 
H      18.74492674      34.31050267      24.33871105 
H      19.45529195      35.68464989      25.22259091 
H      19.62691986      35.57779938      23.44289787 
H      32.21390908      32.13917377      29.87074883 
H      33.16354224      31.99003308      28.35761335 
H      32.59140057      33.60708091      28.90249375 
H      29.63950286      30.90279217      14.87008645 
H      29.07834750      29.44780648      13.99269811 
H      27.88311937      30.58584099      14.67428257 
H      34.13746973      15.59696531      25.94748443 
H      35.48808001      16.66205461      25.46459004 
H      34.15239910      17.30733851      26.47310215 
H      34.79374062      21.12231556      20.95044135 
H      35.88500002      22.46044733      21.39183478 
H      36.39902613      20.76756275      21.68144216 
H      17.73820098      12.09226494      26.34563901 
H      17.08927060      13.32719877      25.23415202 
H      18.14170015      12.01802868      24.60420510 
H      22.49447467      35.43342420      19.14204572 
H      20.94782110      36.05148975      19.80043562 
H      22.06183626      35.09279542      20.83828160 
H      13.16439322      18.14561192      17.77311532 
H      13.27467055      17.08565269      19.20255717 
H      11.66555683      17.60438115      18.60618081 
H      18.68229421      30.48108038      35.97115414 
H      18.11397958      28.87426454      35.40333770 
H      19.85880851      29.21334791      35.50372935 
H      33.96071127      30.65294005      24.15521167 
H      33.90086911      31.87407085      22.83905879 
H      33.24807921      32.26180073      24.45894379 
H      35.63360274      28.28909780      21.17944624 
H      34.88191214      29.45033563      22.30090267 
H      36.61592847      29.03894467      22.48288906 
H      31.52291836      29.20668794      33.48431917 
H      32.89321199      30.07676723      32.73507028 
H      31.66134400      30.98324683      33.66254814 
H      21.75437637      11.30015387      23.49471544 
H      20.76567813      12.75708454      23.19364257 
H      21.64862543      11.97587579      21.83666119 
H      33.44845256      17.03998641      19.57544281 
H      34.27230838      18.16946554      20.69557452 
H      32.85202607      17.23239311      21.24051325 
H      26.87103268      12.57142322      17.43820002 
H      28.54228158      12.00033590      17.76934255 
H      27.53396852      12.65196049      19.09880010 
H      13.21026791      30.30508898      30.07402266 
H      14.04378570      28.71099209      30.10317616 
H      14.47203197      29.96421319      31.29883473 
H      32.94220743      20.22105090      32.12581377 
H      33.07965638      20.10048714      30.34772976 
H      33.97991501      21.37141694      31.22296645 
H      19.33131162      25.44192272      13.15619316 
H      18.26597188      26.72228510      13.81031673 
H      19.30364398      27.06428759      12.38157110 
H      15.81404640      29.03319127      17.03768193 
H      16.00652374      28.94137112      15.27037352 
H      14.77598159      27.92999655      16.09072487 
H      27.07604303      10.59087917      22.84015329 
H      25.66060225      11.63890526      23.20987579 
H      25.93126729      11.05767046      21.54514575 
H      14.34238416      33.81477347      26.30384267 
H      14.91482561      32.98261811      27.78616332 
H      15.11710325      34.75671212      27.61187586 
H      14.74950610      21.76278751      33.34210804 
H      13.79817778      20.50924962      32.49498017 
H      15.53620558      20.24418549      32.80369505 
H      21.59963846      16.42147664      13.07904678 
H      22.48465440      15.49541911      14.31926866 
H      20.77682828      15.08986742      13.94669593 
H      22.52275626      29.69091175      13.14383777 
H      23.61396820      30.04794227      11.76511632 
H      23.03602853      28.37327969      12.04477864 
H      19.02875871      20.76052568      12.76058133 
H      20.17823492      21.82532216      11.89936221 
H      20.79448908      20.51316098      12.94308828 
H      22.74268280      33.23655495      14.92180435 
H      21.01227736      33.66753396      14.71192316 
H      21.68299163      33.40509583      16.35551138 
H      23.64989690      36.13095368      28.10778328 
H      24.70085558      35.16657689      27.01224601 
H      23.00397059      35.50237572      26.55358013 
H      11.99944603      17.79774802      30.82300582 
H      12.53772041      19.47097495      30.47511872 
H      11.27976165      18.70455402      29.45968449 
H      26.30271732      34.58759207      21.15391174 
H      25.47575785      35.65601017      22.33535691 
H      26.46192916      34.28123412      22.91674134 
H      29.95260102      21.28348806      12.96550625 
H      29.47143224      19.76480503      12.14999876 
H      29.20470884      21.33512452      11.33774600 
H      15.40488488      21.25745053      15.58975296 
H      16.06524360      22.55452774      14.53684295 
H      17.17366485      21.38793470      15.31664885 
H      28.46676901      15.98188430      15.19272095 
H      28.13882248      15.57354171      13.47777886 
H      28.70134159      17.21754999      13.92371594 
H      16.82552539      12.08686971      30.23770986 
H      18.29064094      12.23788062      29.21343540 
H      18.44617982      12.15863728      30.99499716 
H      30.77064017      13.73731532      30.98975049 
H      29.77241566      14.84455581      31.98514497 
H      29.49522588      13.07462645      32.05052324 
H      27.12090508      35.50160252      29.51004428 
H      26.35884106      35.62785826      31.12389786 
H      28.13946625      35.52822986      30.98345420 
H      33.07778636      28.68667456      17.27479700 
H      31.70315169      29.56032543      18.00078684 
H      33.38657137      30.04028367      18.40254835 
H      26.68097955      15.88002148      34.11965970 
H      25.25340209      15.51408668      35.13332017 
H      26.36809836      14.19560663      34.64473608 
H      12.81369750      29.57611409      21.36673684 
H      13.08626974      31.14776598      20.55540543 
H      12.00713862      29.93445467      19.80338510 
H      12.29450204      27.54915014      25.70726965 
H      11.07838400      26.60791787      26.60599440 
H      11.92449410      27.97266643      27.40147081 
H      36.10460624      20.26855524      25.82099222 
H      37.01966951      20.26288503      27.36164288 
H      36.26715106      18.75657953      26.76431495 
H      30.02591594      25.15744937      14.42036539 
H      31.74945228      24.85284830      14.80488480 
H      30.86082535      23.74795706      13.71556472 
H      19.40392505      23.83303187      35.69651771 
H      18.99965041      25.22007382      36.76292215 
H      17.69880048      24.24153405      36.02180395 
H      36.73850990      25.52966636      25.28334229 
H      37.41453165      24.15880351      26.22109776 
H      36.12539333      23.87191081      25.01217331 
H      19.78570527      20.08844990      36.89498987 
H      18.68544042      19.14137178      35.84951089 
H      20.43980249      18.81046915      35.81703879 
H      32.64217717      24.77315137      32.50382261 
H      33.28277320      26.43874302      32.68791597 
H      31.52207082      26.11677047      32.86951054 
H      25.64472934      19.59104497      11.54842386 
H      24.76645116      18.05503637      11.78971607 
H      24.17534808      19.23736199      10.57343643 
H      14.76870070      33.38749182      21.59631534 
H      15.73512211      34.39165579      20.47383344 
H      15.72406331      32.60423434      20.30249915 
H      15.62750133      26.16156990      32.99377343 
H      14.09217533      25.62191411      32.23414786 
H      15.51600445      24.53990517      32.23166610 
H      11.12407423      26.55558941      20.62140139 
H       9.71101656      26.71482930      21.71416663 
H      10.66886944      28.15877064      21.28109418 
H      22.08018083      12.66711158      17.20786228 
H      22.23400006      13.76596477      15.81367847 
H      23.09728561      12.19764421      15.80313643 
H      12.43524696      23.54440126      17.28916186 
H      12.18963890      25.29622471      17.01026829 
H      13.83929541      24.58299274      16.92183219 
H      22.99117235      12.07551892      28.28267299 
H      21.89881117      11.66207777      29.65025502 
H      21.22870690      12.33649066      28.12414137 
H      16.50570494      15.25662824      32.61519853 
H      17.32378248      16.01412276      34.01092647 
H      15.53713237      16.11461197      33.86188738 
H      13.47051417      16.03440011      21.37069296 
H      14.00034702      14.64157315      20.36883780 
H      13.95753921      14.50556851      22.15121805 
H      13.31518867      13.70086106      27.19223199 
H      13.10380597      15.40900803      27.72769072 
H      12.80828265      14.96385662      26.02014448 
H      27.79366859      32.59484018      16.03596629 
H      27.11510886      33.95929406      15.09209702 
H      27.33079286      34.09744138      16.86943852 
H      31.82145304      14.24868808      24.70689936 
H      32.25432951      13.67561649      26.34601068 
H      31.72387392      12.50016177      25.10651510 
H      18.49574717      13.43401069      17.64659450 
H      18.35067014      12.84320313      19.32924280 
H      17.80672854      14.49411256      18.92210488 
H      28.60632491      35.11213982      24.93019082 
H      28.54235565      35.08272922      26.71814296 
H      29.39391899      33.78456928      25.83987943 
H      11.87394527      23.64842143      28.17995316 
H      10.92411588      22.12058626      28.15268368 
H      12.40875574      22.25060716      29.15838312 
