699
Properties=species:S:1:pos:R:3 i=71 optimized=T E=-11498.1201498606 pbc="F F F" jobid=279_84-Ag-69_9-000009-PBE
Au      33.14277054      25.36357725      26.01875406 
Ag      31.95721633      29.17298831      21.56070773 
Au      34.48643221      28.16537627      25.46329460 
Ag      29.71932384      15.00246922      19.72716440 
Au      34.00795280      19.42437497      23.82050963 
Ag      27.20243469      23.38288745      13.28867821 
Au      18.13052055      33.16501924      28.24751632 
Ag      28.50558402      30.96544516      18.33026973 
Ag      24.90973384      21.23636402      23.26132456 
Ag      26.25137076      23.23930620      24.95435948 
Au      28.14861458      25.07667592      23.66442317 
Ag      23.80863272      21.61369590      29.02341731 
Ag      23.33105457      27.86362121      26.97514322 
Ag      26.86029428      23.07128372      21.98711289 
Ag      22.40980343      19.56159433      27.36581194 
Ag      27.18662882      21.13729344      26.74317401 
Ag      22.03967131      21.50185670      22.71156925 
Ag      21.01262520      23.55869952      20.84023989 
Ag      27.63685298      25.30804341      26.59310842 
Ag      19.99700474      24.01058911      26.69714899 
Ag      25.45764370      21.07750844      20.31819704 
Au      24.26189826      25.75737535      28.79759138 
Ag      23.85121853      27.67112898      24.10148465 
Au      26.17215840      27.62459376      27.57773610 
Au      20.94828810      21.89013560      28.40696363 
Ag      22.88144456      23.71745718      27.19127874 
Ag      21.48906533      21.67952390      25.58041394 
Ag      19.55116964      19.86710446      26.84816887 
Ag      25.83588764      19.12148312      25.09168120 
Au      25.23534681      23.62622450      30.74698635 
Ag      22.96323968      25.34485025      19.59064657 
Au      20.99578803      27.91271590      23.57395546 
Ag      26.67858351      27.38119817      24.72114909 
Ag      22.57441841      21.34057468      19.79574788 
Ag      21.93284552      25.83105184      25.38617435 
Ag      27.14627447      25.49837005      29.45725177 
Ag      20.11871163      19.69910792      23.97337337 
Ag      25.85766813      25.07229719      20.16789759 
Ag      23.50486454      19.23934468      21.64633608 
Ag      22.34914743      23.91823587      30.06075699 
Ag      21.03919620      17.50888632      25.76092047 
Ag      21.51729971      27.62743727      20.67355729 
Au      24.38182311      27.40471642      21.27274661 
Ag      24.51393931      23.13641642      18.49128018 
Au      28.59935814      23.19135099      28.47611908 
Ag      18.59842102      21.94530514      25.07462614 
Au      26.69604463      21.26671237      29.61494405 
Ag      22.37419804      30.01930480      25.14510864 
Ag      27.22572099      27.11603904      21.82725230 
Ag      21.83034277      19.75671006      30.26935514 
Ag      18.46794875      26.32983009      27.72629084 
Ag      23.18368137      21.73739706      31.91946336 
Ag      21.52806245      23.37981518      17.93137432 
Ag      17.07181170      24.28666616      26.16996299 
Ag      27.41657331      22.86630187      19.05953323 
Ag      23.86520574      17.19906978      26.31192808 
Au      23.29043963      17.48989900      29.22609342 
Au      25.21332092      29.75052502      25.71696533 
Ag      21.61821141      17.32490997      22.86947245 
Ag      28.73880092      18.80828078      25.68722538 
Ag      22.82685171      29.77915900      22.26208242 
Au      25.32754150      25.32400553      23.09796293 
Ag      20.04183976      25.62623492      18.98621337 
Au      29.56870758      27.16022712      25.38977911 
Ag      19.39622137      24.23670247      29.56998741 
Ag      18.03442314      22.17862694      27.93598957 
Au      19.98266373      28.29916177      29.33939902 
Ag      23.73119268      25.90966166      31.64600042 
Ag      20.93735399      26.29085569      31.16859136 
Au      26.37044433      19.03754195      22.17876459 
Ag      24.68404257      19.51680849      30.84071641 
Ag      20.42668349      17.71682649      28.65206661 
Ag      28.82468224      24.81899523      20.72151368 
Ag      19.53641558      30.18485576      24.60138706 
Au      25.76340001      29.53108137      22.81083665 
Au      24.88208298      27.11653865      18.34180287 
Ag      28.38565117      20.81499265      20.90676559 
Ag      29.06586849      27.41598616      28.24232225 
Au      30.01647071      20.88953005      27.31938318 
Ag      18.12851576      23.90750358      20.32050022 
Au      17.71190571      19.73701779      20.59786822 
Ag      25.62300705      27.80735385      30.43764535 
Ag      28.10251587      23.37344684      31.29001898 
Au      21.91014258      30.16047498      28.09203740 
Ag      21.81490177      24.12089029      32.88877288 
Au      18.66656073      27.91422530      20.16369131 
Ag      16.30523452      22.02759178      21.63096154 
Ag      30.49908883      25.02693033      27.17895001 
Ag      23.39904140      23.50566585      24.33762934 
Ag      20.01891005      30.02108293      21.68697789 
Ag      16.65364561      20.07232969      26.35306806 
Au      26.70490242      17.01887593      26.92533171 
Ag      29.97410868      25.24465529      30.01210294 
Au      17.56112706      28.42449999      25.93348317 
Ag      16.19393369      26.31929683      24.31567336 
Ag      28.56833399      29.16958154      23.40844776 
Au      27.80377338      26.81440421      18.94962556 
Ag      24.08766443      19.03785749      18.63069251 
Ag      27.35007111      16.80245832      23.98928796 
Au      26.88553495      18.77317870      19.23749096 
Au      25.96553180      21.39204653      32.60127640 
Au      12.53358097      18.78874488      21.80672186 
Au      23.06618642      21.13424800      16.93603643 
Ag      26.29319631      29.19094923      19.91177491 
Ag      19.97915853      19.55848002      32.43676249 
Ag      26.11096659      17.14159133      29.79315692 
Ag      29.24425739      18.73166754      22.77583539 
Ag      27.60937291      29.70393789      29.20815085 
Au      15.25989090      22.43006628      27.40786209 
Ag      26.01000873      20.84367811      17.34850690 
Ag      24.56425102      23.82643733      33.50692755 
Ag      23.49144684      25.15214472      16.63629959 
Au      17.61543674      18.04900031      28.14900843 
Au      19.07213292      30.40422542      27.49951406 
Ag      23.44942433      29.44312658      19.41692101 
Au      22.42061838      25.57254411      22.48341711 
Ag      16.17482313      20.20277219      29.33319841 
Ag      27.48281015      19.14966695      31.42474818 
Au      29.09233823      28.94475545      20.59217438 
Au      16.50884547      24.41451700      28.99897885 
Ag      31.93709305      22.76849282      26.12673744 
Au      16.67092780      21.73108125      18.77055358 
Ag      24.81967289      31.52064088      20.84893016 
Ag      21.95438617      31.75431020      20.32887488 
Au      20.64435400      25.45550304      16.17012346 
Ag      24.29507962      31.85595636      23.92074171 
Ag      20.60337588      29.68727738      18.86636384 
Ag      23.10075847      15.10885328      21.53628321 
Ag      30.31211895      22.52920017      19.63281487 
Ag      25.10070651      22.91194167      15.58044848 
Ag      18.66069583      23.69761130      17.32531778 
Au      28.83563055      20.60780491      18.06775456 
Ag      17.59370507      22.37682628      30.94487204 
Ag      17.13088897      28.71868583      28.82366930 
Au      27.84212683      16.75983543      21.10661454 
Ag      15.57031765      26.81900099      27.10941576 
Ag      18.87404698      15.76713004      27.01303898 
Au      19.65976406      15.49434780      23.94712135 
Au      18.10780536      26.65243623      30.69845287 
Au      20.16420292      15.42014968      21.20180055 
Ag      27.19409808      31.49109173      24.33976658 
Ag      24.73353211      15.12319993      28.30083488 
Au      23.94717388      23.28853837      21.41515146 
Au      20.08208556      21.23518537      16.41451847 
Au      27.87083827      22.81159583      16.13435433 
Ag      31.33422414      20.42507426      21.70440644 
Ag      26.79080318      31.79276273      27.36294555 
Au      25.53114870      14.96745967      25.21829549 
Ag      28.71898797      16.17555856      28.75719381 
Ag      25.94411539      14.85875769      22.28897713 
Au      32.50177510      22.63529546      23.31813069 
Ag      25.69547422      30.55519741      31.26832585 
Au      22.91917460      30.86003448      30.69264068 
Ag      24.10871784      17.00396003      31.95972563 
Ag      31.29720905      17.88797599      24.74002498 
Ag      17.06404301      26.06041282      18.58894249 
Au      31.51674185      22.87624501      28.90450599 
Au      29.34028376      16.05330423      25.91382306 
Ag      15.58241019      29.18385725      23.97916880 
Ag      16.09050497      28.91314862      21.10088750 
Ag      17.05101126      31.19259029      25.59990310 
Ag      29.40667773      24.79530278      17.83891742 
Au      30.67653239      18.05415358      27.64191587 
Ag      18.52694988      17.51811022      30.84334069 
Ag      24.01978567      19.62525889      33.62307064 
Ag      18.02998633      30.66244539      19.70475413 
Ag      17.49047168      30.97867563      22.65698125 
Ag      14.20676235      27.09737113      22.45333065 
Au      32.58923429      19.95686828      26.43932790 
Ag      24.79206008      25.54300023      25.97174435 
Ag      32.85532345      26.72225704      23.26242003 
Au      24.77792690      20.04908335      14.90781907 
Ag      20.05248649      30.99119013      30.17904375 
Ag      31.77435088      27.68778706      27.14279185 
Ag      23.77987103      28.65244501      32.50126999 
Au      29.90336873      15.97317013      22.99025578 
Au      22.47722870      17.08888275      34.53412585 
Ag      13.96712865      19.54912625      27.50075638 
Ag      24.14239807      27.93057724      15.76178740 
Ag      15.49209212      17.53387088      30.40360894 
Ag      25.17551631      25.57579371      14.45292244 
Ag      28.66811051      30.45882620      32.06979982 
Ag      22.56409802      30.16937712      16.83585471 
Ag      21.99020072      21.75185429      34.77041641 
Ag      31.12784629      28.26026363      30.28497984 
Ag      19.81552516      14.97919304      29.69140246 
Au      22.41262400      25.23263513      12.94677369 
Ag      16.24322910      15.07717318      28.18581706 
Au      25.58387334      33.57237210      29.35016412 
Au      26.62296800      14.54363582      31.10154288 
Ag      28.38984089      13.65554304      24.12858748 
Ag      16.33931640      17.25426645      19.44139078 
Ag      16.13017383      17.19405333      23.31956253 
Ag      20.80632387      15.65658182      17.74075142 
Au      11.88209703      24.61245433      23.12222298 
Ag      14.66521828      29.97726919      26.90860097 
Ag      24.34666201      21.37343692      26.15020589 
Ag      14.94715947      19.93149364      20.18558518 
Ag      25.32184910      31.08170808      18.02991941 
Ag      27.77429399      20.13180795      15.00131680 
Au      30.12840710      26.94992882      22.47878214 
Au      30.98887196      24.87076940      24.30091370 
Au      31.69344033      24.76946226      21.43275813 
Ag      20.50408033      23.77957613      23.80588472 
Ag      25.31593584      14.95372352      16.09644646 
Ag      30.76651070      29.72124653      25.13233641 
Ag      25.72908669      23.42173698      27.84998036 
Au      26.76950854      28.67293468      17.05228986 
Ag      20.84114970      31.30100627      33.11124052 
Au      17.63563941      24.01660451      23.30530400 
Ag      22.96066486      19.35022931      24.49812793 
Au      27.77029059      20.97779082      23.83892301 
Ag      19.57332018      25.84379382      21.95457382 
Ag      24.99087077      30.78243009      15.02169495 
Ag      25.22910974      19.27269885      27.96784381 
Au      19.05418320      26.07359956      24.87567488 
Ag      20.49741634      28.11123815      26.45886510 
Ag      21.40732055      25.99975265      28.26520972 
Au      29.06922538      23.01827910      25.53377109 
Au      19.17570078      21.78350373      22.16588160 
Au      24.50797463      17.07114063      23.46220296 
Ag      22.84019097      28.10279048      29.88153246 
Ag      20.66947812      19.55058297      21.10302327 
Au      20.40925904      22.15517232      31.27260603 
Ag      24.79348224      30.01937820      28.64328164 
Ag      18.06754671      28.21092487      23.02596964 
Ag      28.10306014      18.97463459      28.59428038 
Ag      19.01806747      20.11039046      29.73754685 
Ag      29.72970402      22.75115872      22.61672166 
Ag      19.59060775      21.58939693      19.20373926 
Au      18.21873342      17.86625972      25.17476737 
Ag      15.71157852      22.15941552      24.53132150 
Ag      16.67678312      26.12222111      21.44823869 
Ag      26.39656373      25.00913311      17.16490837 
Ag      28.07253169      29.44846361      26.28260257 
Ag      17.15808696      19.91089378      23.43042213 
Ag      18.77715944      17.68129342      22.33101217 
Ag      30.64657447      20.69162290      24.46427228 
Au      22.05935839      27.46365266      17.75828512 
Ag      21.14124619      19.36176336      18.21418188 
Au      22.18993299      17.30952078      19.90791428 
Ag      21.90347403      15.49532959      27.53874505 
Ag      19.04179584      24.40166029      32.42832039 
Ag      26.48363237      25.65532675      32.36326862 
Ag      14.77036003      24.23350287      22.76099201 
Ag      29.55592522      20.84402604      30.21220379 
Au      23.79508453      31.97442741      26.75943357 
Ag      22.52121085      15.18706935      24.65411550 
Ag      25.00579160      17.00740631      20.54456070 
Au      28.39511252      27.66334999      31.07232758 
Au      19.31638103      17.58430712      19.49804967 
Ag      27.67269768      31.22554360      21.50095213 
Au      15.28506194      24.11995870      19.91859326 
Au      21.30146300      17.11798769      31.31899230 
Ag      21.22655139      32.08699984      23.21600033 
Ag      14.14922226      24.51464817      25.51443315 
Au      22.36819274      23.09116344      14.94895451 
Au      30.59303948      26.78333635      19.49123504 
Ag      18.24024379      19.48389389      17.66519445 
Ag      22.87214440      18.31660478      16.14968031 
Ag      15.58207757      17.34915945      26.19890061 
Ag      30.30157143      29.98536770      27.98797104 
Ag      29.76076577      18.39457906      19.82590421 
Ag      13.73494775      21.41556452      22.60320038 
Ag      30.26041232      17.65894512      30.84942285 
Ag      26.78087635      15.97219495      18.54838986 
Ag      20.79950431      32.27280977      26.32401212 
Ag      19.22401437      27.85110367      17.22957505 
Ag      25.93474105      18.00006000      16.60866365 
Au      14.55435456      19.44503720      24.52473726 
Ag      19.06367087      33.15231948      21.01080275 
Ag      24.02202150      21.95945916      12.70767090 
Ag      34.36482296      22.59308445      27.71239753 
Ag      29.10557252      32.51859080      29.08255014 
Ag      19.34820274      31.14465224      16.62727426 
Ag      23.72518122      15.33945799      18.65223433 
Ag      13.96375278      27.13327841      19.49351829 
Ag      21.00076159      26.71676859      34.19735602 
Ag      19.55962821      28.64288806      32.12697368 
S      20.68767881      16.00038656      33.46303832 
S      28.45665525      32.87476810      19.83270928 
S      23.93621308      22.86954330      35.70672341 
S      24.22902366      18.18672417      35.65368625 
S      12.49665453      18.08553108      24.05096686 
S      32.20804615      17.36058048      29.43317325 
S      31.40878997      14.80273271      21.45476203 
S      29.56157331      19.01469841      16.34953211 
S      28.24058305      21.94782930      33.35874802 
S      23.12451322      27.77609979      34.72039917 
S      13.44547678      30.12378172      24.81536582 
S      16.25515980      18.07083197      17.13714993 
S      32.72400362      23.21987929      19.85728694 
S      26.71416992      30.65585007      33.51515556 
S      22.92859013      32.39195548      32.62123727 
S      17.18400449      31.61113699      17.58231762 
S      11.43084455      22.31288760      22.94310400 
S      25.05065390      13.14473277      26.76328581 
S      33.79096826      29.16553807      27.47835930 
S      28.65528020      26.49295604      33.27252765 
S      24.08678203      24.16509010      11.65855245 
S      27.34867354      25.80014352      13.30455135 
S      19.03076042      33.22833813      30.43027863 
S      28.76150984      17.49042049      32.74055336 
S      21.23890603      34.08817081      24.70344770 
S      31.02059958      32.32668654      27.58321904 
S      28.93091452      29.53157232      16.38370441 
S      33.57787576      17.11708899      24.01333488 
S      34.73485358      21.65686150      23.55515613 
S      19.34892244      13.72949559      25.61711945 
S      20.72875360      33.66320253      19.32605117 
S      12.59085116      19.45916992      19.55300748 
S      18.76139284      30.29690301      33.76429351 
S      31.73451185      30.94284786      23.21625412 
S      35.27247702      27.22236279      23.44892260 
S      30.94160209      30.54769948      31.22031547 
S      23.15656023      13.24814453      23.17271023 
S      32.12300547      19.14555887      19.72403228 
S      28.51474384      14.40850548      17.71696047 
S      15.29005366      30.32905189      29.21585616 
S      31.64196949      21.88601112      31.15285054 
S      20.62054564      26.44875390      13.89926845 
S      17.06434185      27.05562662      16.29717648 
S      27.42077901      12.88936056      22.03985356 
S      16.89802734      33.57249272      26.27438591 
S      15.19991935      21.70452844      31.09245437 
S      21.03490439      16.78156476      15.58876322 
S      24.73029927      28.88039063      13.55271895 
S      20.12127078      22.22564232      14.17484742 
S      21.25201788      31.41221305      15.16444127 
S      23.61935032      34.01194868      28.11942005 
S      13.56825276      17.56034034      28.92212405 
S      24.11637833      33.55471479      22.10397685 
S      27.44554330      21.04697739      12.71600624 
S      16.30167898      23.03265431      16.72972710 
S      26.18282374      16.57991726      14.56361561 
S      17.45006121      14.43054858      30.18585537 
S      28.53049035      13.95731599      29.85573501 
S      27.53194829      33.47649329      30.68063816 
S      32.75512815      27.94770218      19.58871994 
S      24.91380589      14.76944895      32.69790116 
S      14.28639240      29.52585662      19.50924872 
S      13.29809600      25.90234704      27.42297691 
S      34.58750272      20.18383365      27.84159028 
S      30.30203328      23.38228673      15.99843317 
S      18.78714449      25.75143348      34.49978022 
S      35.07921927      24.89013809      27.40431845 
S      19.81083245      20.69883393      34.62933838 
S      32.24866728      26.08491030      30.56022060 
S      23.66684043      19.52244646      12.78650615 
S      17.01558340      33.38109440      22.30159083 
S      15.72379488      26.10114160      30.64317566 
S      11.82515089      26.96831724      23.14439271 
S      24.33183419      13.25477405      17.48732796 
S      13.05705098      24.90791756      19.21395686 
S      22.01540217      13.82911247      29.38398597 
S      16.71768909      17.65441300      32.51354519 
S      15.85940666      15.77618756      21.32000692 
S      14.96612401      14.95750180      26.11721057 
S      25.20006095      32.83539670      16.28667741 
S      29.82696236      13.65067674      26.11364021 
S      20.24944639      13.85680395      19.31886053 
S      27.15734066      33.60357552      25.58992337 
S      12.92358451      21.79285852      27.07835297 
C      21.18611398      14.24150103      33.32006281 
C      30.22219536      33.23016930      20.20967876 
C      23.28929841      24.19636327      36.80416891 
C      23.46766031      19.05662063      37.08078797 
C      11.08409777      18.96057892      24.82757780 
C      32.46492266      15.55068755      29.24890079 
C      31.38885602      12.99449232      21.78171566 
C      31.17190323      19.64707628      15.74209672 
C      28.05013296      22.93267113      34.89457149 
C      22.81354128      29.20979110      35.82843687 
C      13.41313565      31.90641633      24.36436037 
C      16.83544562      16.66645473      16.09976452 
C      33.26582144      24.20673761      18.41267292 
C      26.59076717      32.39683769      34.08109461 
C      22.48491142      34.05555174      31.98318933 
C      17.17587296      33.44996696      17.59863486 
C      10.64734134      22.23903866      21.28181922 
C      26.58995358      12.24972001      27.18580280 
C      34.85162533      28.41374432      28.77245264 
C      28.33354909      27.61063877      34.69168136 
C      23.30017408      23.99234200      10.00413785 
C      27.00318485      26.39003518      11.60039854 
C      17.51924141      32.98902497      31.45091875 
C      29.57347108      18.39126644      34.12383897 
C      19.72767969      35.10226565      24.47909026 
C      32.52582189      32.58917232      28.60054745 
C      28.73902790      30.45912599      14.81204264 
C      34.45660650      16.59328930      25.53869116 
C      35.54122225      21.71843793      21.90910302 
C      17.81217469      12.84157453      25.14460391 
C      21.55050185      35.21870142      19.85774087 
C      12.58949509      17.91634512      18.55614358 
C      18.94585441      29.61237307      35.45985331 
C      33.40730107      31.48912204      23.74399894 
C      35.69205101      28.62064163      22.33638400 
C      32.04795943      30.48494441      32.69416830 
C      21.70691730      12.19853127      22.76435534 
C      33.24904299      17.80405475      20.26930214 
C      27.96585791      12.69800574      18.11398858 
C      13.98823109      29.49002626      30.20739415 
C      33.00529573      20.66247537      31.16754689 
C      19.12074358      25.72429893      13.13249121 
C      15.86073315      28.43608751      16.19027966 
C      26.41831996      11.40533135      22.45251080 
C      15.23414682      33.95364326      26.95493688 
C      14.93359725      20.83899996      32.69192373 
C      21.72092460      15.60372663      14.35558157 
C      23.17839060      29.21485789      12.62706107 
C      20.31733083      20.80879293      13.02900010 
C      21.62475435      33.19785908      15.40783285 
C      24.09894061      35.37694509      26.99283281 
C      12.17315493      18.08820972      30.00466235 
C      25.57852604      34.66731447      22.14550303 
C      29.10181655      20.93448538      11.91791706 
C      16.29805486      21.82009317      15.35423694 
C      27.95027885      16.12750909      14.34807832 
C      17.44440196      12.58773579      30.23415501 
C      29.78367329      13.77204716      31.18689013 
C      28.01668943      35.24721225      30.83600005 
C      32.71104919      29.17334216      18.21968708 
C      25.88954158      15.07330372      34.22529635 
C      12.91397127      30.22441890      20.51444130 
C      12.03309728      27.09126184      26.83129865 
C      36.11614459      19.86346612      26.87412900 
C      30.60877382      24.50313112      14.57769864 
C      18.92139805      24.61597856      35.94215330 
C      36.47335059      24.72916394      26.21690478 
C      19.71354034      19.41541467      35.94040471 
C      32.42973269      25.83701438      32.37120074 
C      24.87408806      18.69879387      11.68226966 
C      15.66848615      33.48505598      21.05377632 
C      15.32555881      25.28582701      32.23218128 
C      10.72179955      27.32748388      21.71942322 
C      22.84181374      12.60375506      16.62967773 
C      12.92643742      24.64624382      17.40030898 
C      21.67718220      12.20295597      28.59884711 
C      16.62867581      16.02879076      33.35983612 
C      14.08708062      15.30418283      21.20548644 
C      13.17313915      14.82514259      26.48925243 
C      26.88412698      33.53543449      16.06334804 
C      31.55024055      13.46490709      25.50772673 
C      18.49139832      13.43604816      18.98717229 
C      28.83729938      34.34133332      25.53740119 
C      12.11672222      22.35562996      28.62753664 
H      22.20758724      14.14462846      32.93718986 
H      21.10783368      13.78362301      34.31272185 
H      20.48554631      13.75987499      32.62682212 
H      30.73089336      33.52902725      19.28658488 
H      30.24752619      34.06064749      20.92502959 
H      30.72516803      32.36433314      20.65393554 
H      24.14982595      24.70781910      37.25148101 
H      22.69359820      24.92849717      36.24721227 
H      22.68324521      23.74208028      37.59563617 
H      23.18663076      18.31935595      37.84069431 
H      24.22779505      19.73749172      37.48152138 
H      22.59233388      19.64259394      36.78084627 
H      11.16918571      18.81489688      25.91156381 
H      11.09987098      20.03117886      24.59677248 
H      10.15609428      18.50760980      24.46089854 
H      33.27847975      15.40601035      28.52778703 
H      32.76080659      15.13455212      30.21858942 
H      31.56182612      15.04873360      28.88343314 
H      30.37016145      12.62760554      21.95085445 
H      31.82289588      12.49362458      20.90841677 
H      32.00995801      12.79255741      22.66149960 
H      31.12679388      20.72672503      15.55357675 
H      31.92737239      19.43841115      16.50999332 
H      31.42095486      19.11191056      14.81793220 
H      27.46362932      22.36089011      35.62175510 
H      29.05783881      23.11872127      35.28631790 
H      27.55860386      23.89163026      34.68979660 
H      22.14638853      29.94711755      35.36319557 
H      22.37658944      28.85495617      36.76892577 
H      23.78076566      29.68446461      36.03279807 
H      12.83334188      32.45648275      25.11374684 
H      14.42237538      32.32701455      24.29000235 
H      12.91451752      31.98886570      23.39101046 
H      16.87911113      17.01318802      15.06044071 
H      17.83302703      16.32740421      16.40086917 
H      16.12038497      15.83995793      16.17726400 
H      32.44184096      24.81461817      18.01977670 
H      34.09330990      24.85865133      18.71344771 
H      33.59945464      23.49806555      17.64510723 
H      26.98197404      33.08139484      33.32072369 
H      25.53393875      32.62442657      34.26424347 
H      27.16386962      32.49878103      35.00991487 
H      21.57832750      34.02573983      31.36940589 
H      22.32533647      34.71042107      32.84798368 
H      23.32685429      34.42391454      31.38385179 
H      16.27873406      33.78111006      18.13410239 
H      18.06896555      33.85529369      18.08747991 
H      17.12736448      33.80369283      16.56265810 
H      11.25853042      22.75360874      20.53215351 
H      10.54824581      21.18054059      21.01112186 
H       9.65728961      22.70426802      21.34002596 
H      27.40336840      12.92932266      27.45316597 
H      26.37006435      11.60481162      28.04535139 
H      26.89172555      11.63489258      26.32924756 
H      35.83959281      28.88518606      28.72649284 
H      34.38085692      28.61874911      29.74180847 
H      34.94179020      27.33022523      28.63484763 
H      28.32023302      26.99290341      35.59791729 
H      29.14210659      28.34797522      34.76180595 
H      27.37962151      28.13631439      34.58789251 
H      23.16641359      24.99076390       9.57278572 
H      23.98412764      23.40780870       9.37731333 
H      22.33472606      23.48296766      10.07065125 
H      26.23538746      25.77451400      11.11967419 
H      26.64931445      27.42592866      11.66756373 
H      27.93387688      26.34767292      11.02308722 
H      17.83761843      32.76940888      32.47706799 
H      16.94057487      33.91912857      31.42919424 
H      16.90965646      32.16260402      31.06942240 
H      30.52318565      17.90192819      34.36553407 
H      29.74030557      19.44406930      33.87177729 
H      28.90162502      18.33524753      34.98883593 
H      18.83559342      34.49053961      24.31807691 
H      19.58192693      35.71485766      25.37601317 
H      19.88382534      35.75217282      23.60970493 
H      32.36907053      32.22770835      29.62331541 
H      33.35202442      32.03473246      28.14052411 
H      32.75019481      33.66194482      28.61017804 
H      29.59312368      31.13599614      14.69359113 
H      28.73207757      29.72456769      13.99797206 
H      27.80299252      31.02963889      14.78356241 
H      34.18170120      15.54690434      25.71988143 
H      35.53798065      16.65945238      25.37447605 
H      34.16478228      17.20342903      26.40086824 
H      34.85567526      21.39296627      21.11994659 
H      35.83258295      22.76012352      21.72893235 
H      36.43087846      21.07938343      21.93574479 
H      17.42985827      12.31592553      26.02775588 
H      17.04431121      13.53057730      24.77992693 
H      18.06638075      12.11641026      24.36276569 
H      22.29347270      35.47378213      19.09248799 
H      20.80533656      36.01850676      19.92619132 
H      22.05931389      35.08578343      20.81938495 
H      12.87403370      18.19440469      17.53458972 
H      13.31342140      17.18751861      18.93466372 
H      11.58038533      17.49032981      18.56548092 
H      18.87865964      30.43697749      36.17828677 
H      18.12377131      28.90602474      35.62241656 
H      19.89471465      29.08136367      35.58924439 
H      33.98514654      30.65894921      24.17244911 
H      33.93738732      31.91195149      22.88307650 
H      33.27488862      32.26404533      24.50863729 
H      35.87937728      28.19544257      21.34337210 
H      34.87076408      29.34144925      22.26437647 
H      36.59619879      29.11405583      22.70938218 
H      31.84482319      29.60162964      33.30769276 
H      33.08691715      30.45582835      32.34537122 
H      31.88969777      31.39104600      33.29040726 
H      21.59437845      11.46044145      23.56726383 
H      20.79513165      12.80341460      22.69021533 
H      21.89025587      11.69005491      21.81146100 
H      33.35682711      17.08904520      19.44536524 
H      34.22458555      18.24486835      20.50597620 
H      32.87044482      17.27787366      21.15026874 
H      27.14033710      12.43033176      17.44429356 
H      28.81485772      12.02497026      17.94863518 
H      27.63175834      12.62024698      19.15475064 
H      13.05091740      30.04852900      30.10682960 
H      13.84571927      28.45191867      29.88878989 
H      14.31026638      29.50002995      31.25542368 
H      32.87619362      20.02876120      32.05397918 
H      33.00832798      20.03412978      30.27238931 
H      33.95822595      21.20036639      31.23461616 
H      19.14795471      24.62938479      13.17742656 
H      18.26032555      26.10010236      13.70198286 
H      19.06326500      26.06402840      12.09218378 
H      15.86742039      29.06393323      17.08583687 
H      16.11621928      29.05395664      15.32165082 
H      14.85935491      28.00955666      16.05551752 
H      27.07868815      10.62164086      22.83946857 
H      25.63911319      11.64559413      23.18410979 
H      25.94196048      11.06061998      21.52692022 
H      14.56139392      34.11135668      26.10386641 
H      14.85750687      33.13736396      27.58111482 
H      15.29916632      34.87658228      27.54167209 
H      14.59880982      21.58550707      33.42209678 
H      14.15577586      20.07674023      32.56663927 
H      15.84664139      20.35478692      33.05095803 
H      21.87842387      16.15564051      13.42115958 
H      22.67921792      15.18097804      14.68330958 
H      20.99732700      14.79814066      14.18590551 
H      22.43744161      29.73323407      13.24569863 
H      23.43062698      29.83491598      11.75918890 
H      22.76995740      28.25297900      12.29196524 
H      19.31760865      20.41173747      12.81495854 
H      20.78084925      21.16506964      12.10110352 
H      20.93930217      20.02016102      13.46351353 
H      22.64056625      33.39569859      15.04673378 
H      20.90038089      33.77738537      14.82448706 
H      21.55437564      33.47572104      16.46542249 
H      24.15012438      36.30115639      27.57950945 
H      25.06345093      35.16959793      26.51426931 
H      23.30961353      35.45133513      26.23336216 
H      12.01519022      17.31981444      30.77025200 
H      12.38402331      19.04894772      30.48530239 
H      11.27037990      18.17785731      29.38910084 
H      25.74278559      35.06884831      21.13968075 
H      25.35965709      35.48173564      22.84581508 
H      26.47325195      34.13077368      22.48082843 
H      29.89019150      21.31140157      12.57744528 
H      29.29986150      19.88303859      11.67819825 
H      29.08697946      21.52055199      10.99166372 
H      15.50988627      21.07888695      15.52430124 
H      16.09597396      22.37909877      14.43209577 
H      17.26982516      21.31741131      15.27293714 
H      28.36999731      15.69312181      15.26195386 
H      28.01439243      15.40052716      13.53018255 
H      28.50645910      17.03519664      14.08536905 
H      16.40816685      12.23879581      30.31033271 
H      17.91194227      12.16269236      29.34039211 
H      18.00039071      12.26765625      31.12340458 
H      30.74434937      13.55922954      30.70383587 
H      29.86446965      14.68202094      31.79236629 
H      29.50133012      12.92412627      31.82051819 
H      28.10542336      35.72310246      29.85514592 
H      27.26210068      35.76838449      31.43593660 
H      28.98384445      35.27900430      31.35143519 
H      32.87479386      28.63977430      17.27624756 
H      31.74848577      29.69407672      18.17613490 
H      33.52005281      29.89588426      18.37827394 
H      26.63411486      15.86170281      34.06783752 
H      25.18746768      15.37981086      35.01028042 
H      26.38809936      14.14100049      34.51243044 
H      12.88512004      29.79328205      21.52167218 
H      13.08351947      31.30540357      20.58887225 
H      11.96311871      30.04367911      20.00112554 
H      12.33453474      27.59970184      25.91122779 
H      11.10443002      26.54015153      26.64327452 
H      11.86456155      27.83645562      27.61814862 
H      36.10447281      20.38792291      25.91358986 
H      36.96888921      20.20024089      27.47545494 
H      36.19736306      18.78427905      26.69928328 
H      29.88869215      25.32651930      14.54085368 
H      31.62528557      24.90069613      14.68513868 
H      30.53633730      23.92686009      13.64741722 
H      19.66241143      23.82694265      35.77146242 
H      19.18906510      25.19665731      36.83169196 
H      17.93946694      24.15156080      36.09178421 
H      36.68695436      25.71901643      25.79500622 
H      37.34530372      24.36407263      26.77245904 
H      36.23076186      24.03185553      25.40851820 
H      19.80302887      19.89200366      36.92326017 
H      18.73194830      18.93321990      35.85863615 
H      20.49656167      18.65468460      35.81957243 
H      32.61732305      24.76980500      32.54418953 
H      33.28470851      26.42500228      32.72424275 
H      31.52050960      26.13515223      32.90768777 
H      25.78057713      19.30468767      11.57632394 
H      25.12904877      17.72421544      12.11547133 
H      24.38833479      18.56704635      10.70798709 
H      14.71504856      33.44625523      21.59408814 
H      15.74444305      34.44158556      20.52471271 
H      15.71257343      32.65792160      20.33583266 
H      15.36469022      26.03833585      33.02788741 
H      14.31455142      24.87067218      32.14322473 
H      16.03123192      24.47451029      32.44899270 
H      11.08393125      26.85630260      20.79884517 
H       9.71479334      26.96609125      21.95497853 
H      10.69654581      28.41633567      21.59371768 
H      22.23907653      12.06846414      17.37229794 
H      22.23490746      13.40320053      16.19335032 
H      23.16652556      11.91259248      15.84377056 
H      12.61833030      23.60686710      17.23598986 
H      12.16492674      25.32600655      17.00177928 
H      13.88751429      24.81575813      16.90356124 
H      22.60054647      11.86143171      28.11452464 
H      21.38248464      11.49337021      29.38059091 
H      20.88434115      12.28408123      27.84646958 
H      16.62415657      15.20947382      32.63253428 
H      17.50578694      15.93398366      34.01090757 
H      15.71294196      16.00578027      33.96199113 
H      13.43061877      16.18447480      21.23464110 
H      13.92551537      14.74933801      20.27398698 
H      13.85413744      14.65630394      22.05886715 
H      12.93097388      13.76683356      26.64021259 
H      12.91048250      15.40452537      27.38076561 
H      12.62072805      15.21306657      25.62501224 
H      27.66701006      32.78201831      16.20549638 
H      26.95953325      33.96904941      15.05988875 
H      27.01792786      34.31944551      16.81763154 
H      31.76427267      14.16178719      24.68977499 
H      32.22526234      13.66738425      26.34779066 
H      31.69199230      12.43219856      25.16851767 
H      18.43588092      12.94441089      18.00907717 
H      18.15056386      12.74574473      19.76740226 
H      17.85587665      14.32840588      18.99518626 
H      28.87151434      35.03208932      24.68656716 
H      29.01563267      34.89434487      26.46690691 
H      29.61443753      33.57964588      25.42495203 
H      12.01965920      23.44803400      28.58187226 
H      11.12503926      21.89063613      28.67992813 
H      12.71399846      22.07587934      29.50333564 
