699
Properties=species:S:1:pos:R:3 i=78 optimized=T E=-11078.7129838863 pbc="F F F" jobid=279_84-Ag-30_1-000007-PBE
Au      33.16365037      25.42421308      25.97735224 
Ag      31.91309212      29.36541279      21.83918648 
Au      34.59985835      28.16820056      25.53471955 
Au      29.90001622      15.05417430      19.61042789 
Au      34.07899766      19.65972423      23.74496898 
Au      27.42691196      23.34139261      13.07871005 
Au      18.02930503      33.29673472      28.14635535 
Au      28.59665572      30.67072302      17.98173208 
Ag      24.91587998      21.21300065      23.25557519 
Au      26.29304054      23.21268379      24.91138483 
Au      28.19913910      25.07283144      23.61870993 
Ag      23.76997449      21.61518418      29.03057299 
Ag      23.37592698      27.91894975      26.93124735 
Ag      26.90109810      23.05070794      21.97456086 
Au      22.37017917      19.60402567      27.38521952 
Ag      27.21893585      21.11803624      26.73514749 
Ag      22.01964223      21.49929356      22.72820023 
Au      21.01509125      23.57687907      20.83872646 
Au      27.68371829      25.28544018      26.54881692 
Au      19.93494897      24.09887898      26.70453993 
Au      25.48255979      21.04958214      20.35046554 
Au      24.30561712      25.76074265      28.74815495 
Au      23.86259754      27.74128460      24.00772836 
Au      26.22237098      27.64587766      27.57097180 
Au      20.88616204      21.96552651      28.39961264 
Ag      22.85721714      23.74329546      27.17456203 
Ag      21.45587141      21.70476178      25.59317504 
Au      19.46575702      19.87548146      26.89864671 
Au      25.83359477      19.07213916      25.10436079 
Au      25.28132338      23.59336535      30.72165309 
Ag      23.00352302      25.35826289      19.53707190 
Ag      21.00271602      27.96606836      23.50552098 
Au      26.69640386      27.41938424      24.68464393 
Au      22.59047631      21.32230667      19.84967440 
Au      21.94068831      25.90745093      25.36122261 
Au      27.22409857      25.48690696      29.43064238 
Au      20.12427932      19.67408448      24.03462337 
Au      25.88760291      25.07264898      20.15727034 
Au      23.47190255      19.18860246      21.68022324 
Au      22.30918995      23.96340352      29.98280465 
Au      20.97131297      17.49572768      25.81169039 
Ag      21.58156818      27.67740926      20.56405811 
Au      24.41272497      27.41625149      21.17553384 
Au      24.56086107      23.09157863      18.48599492 
Ag      28.63339643      23.14071500      28.47291296 
Ag      18.57455446      21.97270119      25.09078654 
Au      26.64086788      21.25651044      29.62818255 
Ag      22.42036129      30.06150173      25.09043273 
Au      27.27190698      27.19294266      21.80498670 
Au      21.70425497      19.78463509      30.26258703 
Ag      18.45285272      26.41052304      27.70021830 
Au      23.15829819      21.76847381      31.88436945 
Au      21.62678050      23.38248050      17.88146910 
Ag      17.02158081      24.30776204      26.16403722 
Au      27.50717244      22.79065798      19.04192187 
Au      23.85671748      17.21892296      26.32973070 
Au      23.20422521      17.51554035      29.24300169 
Au      25.23597197      29.78994775      25.66890136 
Ag      21.57724336      17.25127010      22.91659519 
Ag      28.73956313      18.76396010      25.69358221 
Ag      22.90563718      29.80432397      22.18057363 
Au      25.35008832      25.33198202      23.03960247 
Au      20.09655984      25.64765481      18.92836741 
Au      29.60954924      27.19733718      25.37753349 
Ag      19.35284320      24.28585632      29.56498194 
Au      17.93278861      22.20876912      27.92416175 
Ag      19.99708453      28.45630247      29.34522944 
Au      23.72924619      25.87119233      31.61834803 
Au      20.93239533      26.38092178      31.12928722 
Au      26.37098748      18.97219701      22.15306579 
Au      24.59209831      19.44681408      30.94148148 
Au      20.25988056      17.70779662      28.71754221 
Au      28.88877878      24.87955290      20.77328050 
Au      19.54192913      30.22808465      24.57491701 
Ag      25.79799834      29.59499649      22.77224446 
Au      24.93600051      27.13179321      18.21146207 
Au      28.43080039      20.75988040      20.88557776 
Au      29.13457939      27.47020407      28.26278780 
Au      30.06679248      20.88651087      27.29621642 
Au      18.13322630      23.88166371      20.29514609 
Au      17.62905035      19.68205225      20.67039689 
Au      25.72876719      27.80962603      30.44115998 
Ag      28.13175675      23.43727496      31.36581592 
Au      21.95874357      30.20407372      28.05476862 
Au      21.81875124      24.14424188      32.89552869 
Au      18.72403985      27.98138891      20.01634265 
Ag      16.27027339      21.98130768      21.64229049 
Ag      30.54128049      25.05806061      27.15973971 
Au      23.39868089      23.50434606      24.32445142 
Au      20.06045370      30.03196661      21.61398924 
Au      16.53372222      20.04224232      26.41943916 
Ag      26.68961937      16.92575309      26.90543351 
Au      29.96246949      25.25205033      30.02779444 
Ag      17.59219704      28.48218056      25.89722767 
Ag      16.17568199      26.36825711      24.29556588 
Ag      28.59978210      29.23434972      23.36188698 
Au      27.85244441      26.92172053      18.98159665 
Ag      24.09273457      18.99513276      18.72653760 
Ag      27.33311363      16.77615883      24.01741820 
Au      26.93519699      18.80123071      19.17796881 
Ag      26.02597157      21.40694544      32.58783990 
Ag      12.60563867      18.83041612      22.01182310 
Au      23.14079069      21.03458460      16.97846284 
Au      26.34266835      29.22859521      19.78312052 
Au      19.92704474      19.71870555      32.48166343 
Au      26.09246983      17.15749675      29.74854213 
Au      29.20486397      18.68335648      22.77611469 
Ag      27.66240177      29.74902515      29.28330970 
Ag      15.11314303      22.39910503      27.41234736 
Ag      26.11777753      20.83193545      17.29831980 
Ag      24.57104371      23.82436415      33.50987811 
Au      23.59231449      25.10761054      16.50556054 
Ag      17.43722467      17.94776217      28.25418622 
Au      19.08033963      30.51735036      27.46198909 
Au      23.50883497      29.47570273      19.28746302 
Au      22.44246454      25.62662648      22.43200837 
Au      16.02512732      20.21878467      29.29042545 
Au      27.44003627      19.14651828      31.39557412 
Ag      29.16324246      29.00607331      20.51859438 
Au      16.52504568      24.39817591      29.00503818 
Ag      32.01463097      22.77286276      26.09474957 
Au      16.58029502      21.67554124      18.74442035 
Au      24.92276345      31.61713331      20.73068396 
Au      22.01211606      31.73482250      20.23565156 
Au      20.70378014      25.40707900      16.10113649 
Ag      24.34984413      31.89262224      23.88261092 
Ag      20.65324353      29.71751441      18.71777531 
Ag      23.02810714      14.99385390      21.64689674 
Au      30.33547701      22.57219908      19.65403455 
Au      25.23477069      22.86809269      15.54585484 
Ag      18.69102742      23.67962030      17.29195509 
Ag      28.94608876      20.57042259      18.01190854 
Ag      17.54328649      22.45783645      31.04891043 
Ag      17.16543555      28.73768527      28.76895699 
Au      27.82328003      16.68321759      21.05182667 
Au      15.62761499      26.88056876      27.09407266 
Ag      18.85889082      15.67774716      27.09761639 
Ag      19.47858189      15.45610870      24.05542643 
Au      18.09899708      26.69557994      30.71697582 
Au      20.05565456      15.42470076      21.26564113 
Ag      27.28888132      31.58019069      24.28097283 
Ag      24.69719438      15.12041514      28.38577433 
Au      23.96007248      23.30345418      21.42979142 
Au      20.11784746      21.19976761      16.41843039 
Ag      28.04425768      22.75633990      15.98760564 
Au      31.33262714      20.37252262      21.74740681 
Au      26.78632167      31.79792153      27.45817444 
Au      25.41459532      14.93790224      25.21679101 
Au      28.69287531      16.23719593      28.83153337 
Au      25.94886593      14.84328089      22.35885062 
Ag      32.58245046      22.61800878      23.27190205 
Ag      25.74254017      30.53768394      31.35875628 
Au      22.93550743      30.82163641      30.74956217 
Au      24.16378765      16.78042160      31.83678499 
Au      31.27342787      17.88062283      24.72301145 
Au      17.09196041      26.07011709      18.55028344 
Au      31.54430133      22.91266453      28.83695075 
Au      29.36656735      15.99625405      25.94662834 
Au      15.57092285      29.21856395      23.87472055 
Ag      16.06350567      28.98507999      20.93986344 
Au      17.01315890      31.22422152      25.50459822 
Au      29.53241517      24.87211751      17.92322687 
Au      30.72254978      18.00765773      27.62163318 
Ag      18.51135117      17.56661114      30.96940118 
Au      23.90998783      19.83306060      33.70179080 
Au      18.12855333      30.75109447      19.65011011 
Au      17.44927873      31.01889339      22.57154803 
Au      14.23124745      27.06723501      22.28203290 
Au      32.59986481      19.88451534      26.38175841 
Au      24.79661267      25.56388429      25.92580976 
Au      32.85751800      26.81037742      23.19346557 
Ag      24.65375814      20.09214417      14.79544953 
Au      20.14944618      31.24525180      30.01587357 
Ag      31.84506358      27.75341795      27.13079171 
Au      23.88204665      28.57202757      32.52952340 
Au      29.85495518      15.92317584      23.02620574 
Ag      22.52779992      17.14802538      34.33989855 
Au      13.32175103      19.55516526      28.31779279 
Au      24.02733226      27.84910182      15.51655581 
Au      15.30106295      17.53752366      30.75544740 
Au      25.65622169      25.62228157      14.64525000 
Ag      28.71164501      30.53079381      32.15857911 
Ag      22.64162845      30.15050567      16.67464017 
Au      21.94436779      21.83226527      34.95016823 
Ag      31.21244696      28.19356232      30.20316669 
Ag      19.75314895      15.07399999      29.82884571 
Ag      22.83938618      25.48754509      13.69365646 
Au      16.26608283      14.83567514      28.25657783 
Au      25.59642285      33.77938562      29.28936923 
Au      26.65893900      14.50990294      31.12410649 
Au      28.61036698      13.31496289      23.92061977 
Ag      16.23658227      17.24828577      19.49897226 
Ag      16.04156189      17.27345755      23.24638194 
Au      20.73731180      15.38662809      17.73877704 
Au      11.84454252      24.59294630      22.98892632 
Au      14.66534892      30.09843815      27.13339726 
Au      24.33038417      21.38649051      26.16070667 
Au      14.87470398      19.93615279      20.19043231 
Au      25.46933922      31.17187556      17.97845408 
Au      28.75026661      20.22055926      14.66523994 
Au      30.16459781      27.00697016      22.49182725 
Au      31.04141791      24.87049228      24.27147576 
Ag      31.78779886      24.80571065      21.45434549 
Au      20.51703228      23.79736702      23.80708061 
Au      25.18729275      14.89035804      16.03907002 
Au      30.72294691      29.80617246      25.10948908 
Au      25.75149881      23.39091209      27.83357946 
Au      27.04205406      27.60203523      16.34972394 
Au      20.79281965      31.46995333      33.06599978 
Au      17.67452056      24.04105836      23.29333085 
Ag      22.95466475      19.33922822      24.51042214 
Au      27.77610090      20.95302330      23.84864662 
Au      19.61968833      25.94316176      21.90232010 
Ag      24.92679621      30.86545611      14.89678979 
Ag      25.20619613      19.26536539      27.96139902 
Au      19.02917795      26.14736177      24.82456273 
Au      20.50766107      28.18016348      26.44027446 
Ag      21.40440202      26.09213766      28.23847853 
Au      29.14942124      23.00578402      25.51829759 
Au      19.14955529      21.75060943      22.18433384 
Au      24.48499155      17.02573673      23.45342197 
Au      22.90342274      28.12143981      29.83030953 
Ag      20.63879071      19.49450912      21.14757870 
Au      20.34653443      22.23641386      31.27492357 
Au      24.86345502      30.05395667      28.69612248 
Au      18.04563249      28.26306108      22.93990595 
Au      28.10389722      18.97238401      28.52875402 
Au      18.85538429      20.15207860      29.79357410 
Ag      29.78678417      22.75266239      22.60568457 
Au      19.57150459      21.60327373      19.22173620 
Ag      18.17304266      17.80146870      25.27431159 
Au      15.70157566      22.14227413      24.54844165 
Au      16.71685925      26.17625895      21.39256936 
Au      26.59287995      24.87525881      17.27945159 
Au      28.08522429      29.52146037      26.25473770 
Au      17.17385443      19.87436814      23.53480485 
Au      18.74775147      17.65606496      22.40733462 
Ag      30.66977497      20.71280531      24.44994366 
Au      22.11171891      27.47327497      17.65954462 
Au      21.12305863      19.33834034      18.30745491 
Au      22.13702541      17.19637196      19.92928364 
Au      21.84312910      15.47701961      27.56932357 
Au      19.01935424      24.42269566      32.50164773 
Au      26.44144285      25.69573906      32.38677731 
Au      14.82708052      24.24831585      22.70334845 
Au      29.50443446      20.80815056      30.18860520 
Au      23.86629286      32.01259135      26.75620473 
Au      22.33919105      15.14382089      24.77204067 
Au      24.95894862      16.88113433      20.53749434 
Ag      28.51034262      27.68901469      31.14327004 
Au      19.26731079      17.51185900      19.52408398 
Au      27.76642228      31.23911118      21.51657219 
Au      15.33298275      24.11639561      19.85693409 
Au      21.30074502      17.14968832      31.44276750 
Au      21.24343848      32.06180161      23.13004155 
Au      14.17923157      24.45977042      25.39634836 
Au      22.53436481      22.80916923      14.82581497 
Au      30.69921742      26.85736253      19.54012037 
Au      18.26238783      19.47704575      17.73083468 
Au      22.80607188      18.29754041      16.25129902 
Au      15.49612843      17.47684555      26.15602042 
Au      30.30856599      30.01312363      28.05890189 
Ag      29.81409807      18.26265999      19.87592100 
Au      13.63414258      21.61338118      22.60625332 
Au      30.43110544      17.46172134      31.01522285 
Au      26.68390646      16.01278400      18.49014595 
Ag      20.93907774      32.29290163      26.26118673 
Ag      19.29472226      27.83890600      17.08674465 
Au      25.80887078      18.10281355      16.59556549 
Ag      14.44127760      19.51449563      24.43454213 
Au      18.97838554      33.45068005      20.72999547 
Au      23.77470362      22.12023856      12.20469884 
Au      34.56557129      22.57505523      27.60125992 
Ag      29.06022392      32.47080740      29.31241754 
Ag      19.35227223      31.15488232      16.52735326 
Au      23.59901745      15.09470713      18.81088339 
Au      13.72647309      27.17271064      19.32948148 
Ag      21.00638229      26.77934396      34.14787280 
Au      19.54628225      28.57300460      32.18388938 
S      20.61122527      15.94623485      33.48162638 
S      28.66171607      32.45803671      19.54283434 
S      23.91543293      22.91015723      35.73609064 
S      24.31703369      18.29407447      35.50417682 
S      12.42119333      18.06151303      24.28113257 
S      32.22187763      17.37150646      29.48543281 
S      31.42963017      14.94648042      21.40266181 
S      30.10027431      19.20657537      16.29281353 
S      28.28298629      22.01954664      33.42238966 
S      23.11957989      27.91187992      34.72347970 
S      13.53196796      29.83589897      25.07932639 
S      16.35144005      18.06934791      17.17436080 
S      32.72204421      23.09307630      19.89654597 
S      26.76396465      30.85496085      33.57358741 
S      22.87509073      32.45733684      32.59028519 
S      17.18299515      31.50551846      17.53875817 
S      11.29233456      22.30320571      22.77984968 
S      25.05653030      13.17648147      26.84236630 
S      33.94247980      29.11255565      27.57954634 
S      28.48922149      26.52777635      33.40409404 
S      23.76179404      24.40273309      11.62114455 
S      27.53584440      25.69796772      13.09389243 
S      19.04731972      33.41801467      30.26618259 
S      28.76336722      17.53884092      32.68512371 
S      21.34531963      34.05963408      24.52184600 
S      31.14091174      32.28793869      27.99513861 
S      28.88951137      29.16754614      16.15662607 
S      33.51485798      17.36862489      23.80641846 
S      34.93591903      21.85448770      23.61814403 
S      19.12942218      13.61624097      25.69036665 
S      20.85568431      33.70413964      19.32781417 
S      12.57849751      19.41234355      19.66446497 
S      18.76530461      30.38418706      33.57130885 
S      31.83440380      31.20162695      23.48875419 
S      35.23244833      27.27650786      23.43869929 
S      31.04346906      30.24636782      31.60253924 
S      22.88589032      13.20565549      23.38648478 
S      32.11805875      19.21821295      19.73444413 
S      28.61593054      14.77089688      17.65136870 
S      15.49829344      30.52601011      29.30134806 
S      31.49735211      21.87911001      31.08543005 
S      20.55961316      26.57101568      13.98400643 
S      17.06984226      26.95795116      16.30012685 
S      27.31577874      12.84524417      21.99958456 
S      16.80285683      33.57701500      26.15465766 
S      15.18140720      21.70639601      31.10006923 
S      21.09660077      16.63330313      15.73821683 
S      24.59599038      28.99520559      13.42356572 
S      20.22711328      22.18720347      14.20924473 
S      21.27264644      31.49939065      15.11818930 
S      23.63634428      34.11710126      28.01219029 
S      13.53642106      17.36483611      29.19000312 
S      24.44731133      33.60165845      22.05516329 
S      27.55417969      21.00338371      12.78388783 
S      16.35407883      22.97023597      16.68937513 
S      25.90799008      16.62478348      14.61318799 
S      17.44372880      14.18009795      30.19203690 
S      28.51469858      13.97581410      29.76948563 
S      27.48422003      33.71627537      30.70553345 
S      32.64187917      28.30268376      19.72211832 
S      24.97097767      14.68872600      32.77034457 
S      14.20465760      29.47995833      19.33229512 
S      13.43376115      25.75172606      27.31581496 
S      34.52286844      20.23636677      27.86341319 
S      30.43437677      23.63428867      16.05180323 
S      18.76828557      25.79678218      34.52161076 
S      35.08101682      24.86141472      27.37265736 
S      19.84902853      20.71245260      34.70096052 
S      32.20843821      25.93869548      30.66995757 
S      23.66480371      19.78690564      12.52852664 
S      17.08444473      33.40207544      22.13030836 
S      15.72127770      26.15791672      30.53024793 
S      11.91550491      26.95233040      23.08032847 
S      24.38099215      13.20995529      17.49408744 
S      13.11256899      24.89321438      19.15739127 
S      21.95922471      13.87131661      29.39117019 
S      16.70277385      17.58281265      32.64962312 
S      15.70968191      15.73103766      21.34578932 
S      15.02270046      15.10205762      26.26058322 
S      25.31200897      32.82997004      16.23747939 
S      29.83685077      13.55595633      25.91773743 
S      20.14915745      13.78915049      19.41398600 
S      27.25039030      33.56790369      25.76479701 
S      12.71555159      21.67679870      27.50862783 
C      21.17282407      14.20513941      33.33049631 
C      30.43730341      32.78676411      19.87278629 
C      23.33559347      24.32041922      36.75965407 
C      23.63695265      19.05261410      37.03236159 
C      11.03130800      19.02802768      24.99856370 
C      32.58482801      15.59238037      29.22290213 
C      31.60910136      13.13575510      21.64665201 
C      31.74330839      19.99264282      16.05754282 
C      28.02059130      23.02599380      34.93435942 
C      22.74510541      29.43928016      35.66375695 
C      13.15478670      31.54051020      24.51340791 
C      17.00819364      16.67383593      16.17696265 
C      33.30680814      24.07861375      18.46385398 
C      26.63600884      32.61771391      34.06388349 
C      22.51376186      34.10242428      31.86752563 
C      17.02489506      33.33654446      17.49909674 
C      10.58991755      22.23847873      21.08427549 
C      26.62638928      12.29659602      27.16430041 
C      34.96267146      28.29686509      28.86696397 
C      27.94060610      27.63211974      34.76263132 
C      22.38519816      24.53805124      10.41096103 
C      26.89839505      26.28154931      11.47747525 
C      17.62102713      33.19631834      31.39907794 
C      29.50069111      18.47840809      34.07733135 
C      19.79619812      35.00167152      24.24988421 
C      32.58855565      32.40357401      29.11254835 
C      28.64312207      30.17117309      14.64296985 
C      34.46530507      16.67081146      25.21311443 
C      35.76323999      21.95310803      21.98110843 
C      17.56124199      12.75147639      25.28356434 
C      21.73530039      35.18344056      19.96251246 
C      12.58955941      17.87153570      18.66587248 
C      18.87179380      29.79603002      35.30642372 
C      33.52690643      31.53382992      24.11092408 
C      35.65488091      28.69270830      22.35033862 
C      31.81250966      29.80538010      33.21546066 
C      21.35705524      12.24744429      23.07221310 
C      33.34691130      17.93029362      20.16398834 
C      28.16255314      12.99482527      17.76457832 
C      14.26511869      29.77834610      30.43947339 
C      32.82540305      20.62569379      31.19362209 
C      19.32986789      25.67260938      12.96403804 
C      15.80086126      28.27428761      16.20726279 
C      26.25409599      11.43400140      22.50197486 
C      15.11367119      33.91894244      26.78628199 
C      14.88543678      20.78274675      32.65503151 
C      21.78852193      15.45125731      14.52163990 
C      23.03367733      29.35670708      12.52970703 
C      20.27517187      20.75992847      13.06110845 
C      21.66027262      33.27187808      15.42551643 
C      24.11379945      35.44076660      26.83727936 
C      12.05203013      17.21982401      30.26892491 
C      26.02320524      34.53394550      22.11966403 
C      28.78640763      20.81206645      11.42996565 
C      16.37590517      21.72739975      15.34288911 
C      27.68833384      16.32296368      14.29729603 
C      17.67893280      12.37511070      29.92588599 
C      29.84082184      13.69758113      31.00791194 
C      28.10083180      35.45007457      30.68603115 
C      32.54850159      29.52012777      18.34931810 
C      25.94946324      15.10210359      34.26902496 
C      12.87603729      30.26268132      20.32875691 
C      12.06205038      26.85483187      26.81325560 
C      36.06709359      19.72366493      27.01271290 
C      30.72614076      24.86250931      14.72209126 
C      18.94162047      24.62695014      35.92820813 
C      36.51850650      24.81847777      26.23044904 
C      19.86581633      19.35600624      35.93373734 
C      32.25317428      25.69036411      32.48695712 
C      24.86885850      19.00820412      11.38952038 
C      15.62763133      33.47975887      21.01760941 
C      15.28644718      25.40401687      32.14211188 
C      10.76505645      27.42395490      21.72967550 
C      22.92336518      12.43785561      16.69139468 
C      12.99539906      24.56723994      17.35606250 
C      21.63480815      12.26951973      28.55616939 
C      16.62533590      15.90541693      33.39172407 
C      13.92657227      15.30192538      21.24564288 
C      13.25006317      14.85730205      26.64434363 
C      27.01118630      33.45069081      15.92096419 
C      31.60760021      13.43892699      25.45192183 
C      18.38966611      13.37593208      19.08733157 
C      28.98417804      34.15262071      25.85059764 
C      12.06678189      22.52617434      28.99997887 
H      22.19889063      14.14116120      32.95342527 
H      21.11361964      13.74836026      34.32547203 
H      20.49646595      13.68386084      32.64253324 
H      30.91048561      33.12701812      18.94498436 
H      30.48578441      33.58041444      20.62802675 
H      30.95031201      31.89761501      20.25699114 
H      24.22523882      24.86840159      37.09256415 
H      22.69336498      24.99770706      36.18565542 
H      22.79551418      23.93132363      37.62961526 
H      23.51724242      18.26272907      37.78271453 
H      24.35740467      19.79947230      37.38522793 
H      22.67828837      19.54779616      36.84788321 
H      11.16922683      19.06460231      26.08650269 
H      11.00179209      20.04976118      24.60517497 
H      10.09593154      18.51099222      24.75600761 
H      33.36490346      15.53224007      28.45419348 
H      32.95775892      15.16255269      30.15941590 
H      31.69284953      15.05491813      28.88495966 
H      30.64526053      12.66692295      21.87525293 
H      32.03713702      12.70385099      20.73507676 
H      32.30092701      12.98358462      22.48339773 
H      31.64902715      21.07768746      15.93655299 
H      32.33010832      19.77149811      16.95803485 
H      32.21952555      19.55066318      15.17557878 
H      27.51293150      22.41609153      35.68954295 
H      29.00489927      23.33638084      35.30481004 
H      27.42371179      23.91987245      34.71637907 
H      22.06214222      30.09783192      35.10862701 
H      22.29770062      29.15544456      36.62388774 
H      23.68890513      29.96871429      35.84105322 
H      12.46027141      32.00284489      25.22397328 
H      14.06876285      32.13779132      24.43270649 
H      12.67671884      31.46088662      23.52951054 
H      17.26606078      17.05085091      15.18054712 
H      17.90072077      16.23438528      16.63690534 
H      16.21979254      15.91673607      16.09173966 
H      32.64677555      24.93271161      18.27156643 
H      34.31748601      24.43383834      18.69720458 
H      33.32799931      23.42902084      17.58157242 
H      26.98289931      33.27851223      33.26251811 
H      25.58358790      32.83250176      34.28390034 
H      27.24301845      32.76597756      34.96444321 
H      21.66946877      34.06102301      31.17183246 
H      22.28761188      34.78867291      32.69198312 
H      23.41787959      34.43081218      31.33806540 
H      16.09332970      33.61262932      18.00632490 
H      17.87152942      33.82361676      17.99557430 
H      16.97317051      33.65023386      16.45008441 
H      11.23629628      22.75883352      20.36991268 
H      10.49374524      21.18415976      20.79834112 
H       9.60218131      22.71285179      21.11121042 
H      27.44801020      12.98506131      27.37659968 
H      26.47175914      11.64907410      28.03599835 
H      26.87608460      11.68781863      26.28711580 
H      35.98580259      28.68343860      28.80188516 
H      34.52641984      28.56081456      29.83827968 
H      34.96364767      27.20759519      28.75285515 
H      27.78018390      27.01726536      35.65602285 
H      28.73079240      28.36728375      34.95634909 
H      27.01710832      28.16051377      34.50685989 
H      22.28218203      25.59586802      10.14094766 
H      22.63234409      23.95465630       9.51695177 
H      21.44454740      24.17829142      10.83908757 
H      26.02664250      25.69991940      11.15859491 
H      26.61435291      27.33339814      11.60460367 
H      27.70926590      26.19291029      10.74524232 
H      18.01860553      33.04051172      32.40888316 
H      17.01966427      34.11201770      31.36733434 
H      17.01073736      32.33755749      31.09997698 
H      30.35216518      17.91168416      34.46956980 
H      29.80999957      19.48051512      33.76235945 
H      28.72453970      18.56978964      34.84698657 
H      18.91023510      34.36476116      24.32461808 
H      19.74429539      35.78049300      25.02050567 
H      19.83049625      35.46324918      23.25576471 
H      32.36265004      31.99287772      30.10251720 
H      33.41637355      31.84652810      28.65766667 
H      32.84999180      33.46552095      29.19479012 
H      29.41680407      30.94663251      14.60092667 
H      28.75065141      29.49522328      13.78624808 
H      27.64530790      30.62937306      14.61672913 
H      34.17033023      15.61950214      25.31653397 
H      35.53531325      16.73106723      24.98397693 
H      34.24448574      17.20757079      26.14192114 
H      35.06410855      21.72795663      21.16858511 
H      36.12459826      22.98278011      21.86934115 
H      36.61175827      21.26090867      21.96145939 
H      17.09128666      12.39550759      26.20809459 
H      16.86046162      13.40934407      24.76135196 
H      17.80991545      11.89660109      24.64315584 
H      22.67162798      35.26886518      19.39818878 
H      21.10853372      36.06442243      19.78529471 
H      21.96616235      35.07947083      21.02760741 
H      12.92569946      18.12651863      17.65450769 
H      13.26351966      17.11761300      19.08549338 
H      11.56576088      17.48086413      18.63398116 
H      18.74181110      30.65935351      35.96895066 
H      18.05870866      29.07642636      35.45731096 
H      19.82842358      29.30431430      35.50791437 
H      34.03969600      30.60923269      24.40999305 
H      34.09226522      32.04032939      23.31947845 
H      33.44196327      32.19245189      24.98344630 
H      35.65366856      28.32433046      21.31791631 
H      34.92737107      29.50522856      22.44264545 
H      36.65479472      29.04869486      22.62396448 
H      31.36252374      28.89884454      33.63301337 
H      32.88342800      29.63680839      33.05118229 
H      31.68052220      30.63850862      33.91515845 
H      20.97787957      11.86502635      24.02665339 
H      20.58748539      12.86907316      22.59727034 
H      21.62378244      11.41727980      22.40695979 
H      33.53989555      17.34404883      19.25713704 
H      34.26947672      18.42460591      20.49081909 
H      32.99191492      17.26299911      20.95401927 
H      27.40629555      12.79830034      16.99463963 
H      29.06232049      12.40002618      17.57062757 
H      27.75534002      12.75224620      18.75143849 
H      13.31145007      30.30847597      30.34416548 
H      14.13181411      28.71081513      30.23498193 
H      14.65506356      29.90249699      31.45729393 
H      32.58438721      19.93753074      32.01307533 
H      32.93448573      20.06192608      30.26308913 
H      33.76217985      21.15402053      31.40913193 
H      19.50903919      24.59183930      12.98783058 
H      18.32955330      25.88803087      13.35889165 
H      19.40978507      26.04485422      11.93537364 
H      15.93292552      29.03349988      16.98336537 
H      15.89933332      28.74833713      15.22260735 
H      14.80674408      27.82194606      16.30413126 
H      26.88990970      10.55582880      22.66027922 
H      25.68504161      11.66701924      23.40803535 
H      25.55697829      11.24612316      21.67646829 
H      14.45353230      34.03790416      25.91923512 
H      14.75404587      33.10026655      27.42031585 
H      15.14153329      34.85510751      27.35535220 
H      14.53978524      21.50714431      33.40290814 
H      14.10867753      20.02811448      32.48408612 
H      15.79257348      20.28772717      33.01358606 
H      21.95561903      16.00627528      13.59055973 
H      22.74266675      15.02902886      14.86698857 
H      21.05646658      14.65378376      14.34953394 
H      22.34453530      29.94695375      13.14360715 
H      23.29820144      29.91822906      11.62564794 
H      22.56263309      28.40509833      12.25643182 
H      19.24190979      20.42726220      12.90596472 
H      20.71385541      21.09060357      12.11199341 
H      20.87418867      19.93888437      13.46706637 
H      22.67028027      33.47518499      15.05114170 
H      20.93198318      33.88084190      14.87813941 
H      21.61331391      33.51248327      16.49305131 
H      24.13455919      36.38989874      27.38493355 
H      25.09464428      35.23429984      26.39323470 
H      23.34443961      35.47095669      26.05535781 
H      12.11756882      16.26554484      30.80413512 
H      11.99549047      18.04488745      30.98452612 
H      11.16517410      17.22485675      29.62460295 
H      26.25338424      34.91602518      21.11900774 
H      25.87925815      35.36803313      22.81722803 
H      26.84722752      33.90147485      22.47407465 
H      29.72402723      21.32136818      11.66965388 
H      28.96907795      19.74075370      11.28649317 
H      28.35054298      21.23980919      10.51974275 
H      15.51515454      21.05845420      15.45077215 
H      16.30747455      22.27766474      14.39629234 
H      17.30286415      21.14113430      15.36455965 
H      28.21082551      16.00837735      15.20709504 
H      27.77007123      15.54620824      13.52813780 
H      28.12017674      17.26396240      13.93219706 
H      16.70047523      11.88203923      29.93368481 
H      18.18803157      12.18094726      28.97626367 
H      18.28808557      11.99314696      30.75384333 
H      30.75570664      13.44461367      30.45947280 
H      30.01006244      14.59105405      31.61969164 
H      29.54954288      12.85194453      31.64098488 
H      28.26048856      35.80645969      29.66428102 
H      27.36929550      36.09058301      31.19176527 
H      29.04940857      35.46961236      31.23536745 
H      32.78881793      29.00377592      17.41261687 
H      31.54954977      29.96571561      18.26819882 
H      33.29215186      30.30292844      18.53969016 
H      26.67449165      15.89535725      34.05959956 
H      25.25243427      15.43300385      35.04835918 
H      26.47021314      14.19230677      34.58935987 
H      12.82285266      29.82601854      21.33151972 
H      13.11723108      31.32984452      20.40644552 
H      11.91715749      30.14313122      19.81239581 
H      12.27232000      27.37346172      25.87376710 
H      11.15903407      26.24317258      26.69988440 
H      11.91794656      27.58991655      27.61458173 
H      36.08935745      20.08467319      25.97841028 
H      36.91897641      20.12320426      27.57453835 
H      36.10244697      18.62799517      27.02434616 
H      29.94799531      25.63152089      14.70720630 
H      31.70377711      25.32801346      14.89345699 
H      30.72832119      24.33548935      13.76046941 
H      19.79959426      23.95832678      35.79180678 
H      19.06675818      25.21238013      36.84657221 
H      18.02609283      24.02786969      35.99613986 
H      36.70957317      25.84788954      25.90156980 
H      37.38195910      24.43357877      26.78504486 
H      36.31492248      24.18246501      25.36265611 
H      19.91959877      19.79277537      36.93767507 
H      18.92588460      18.80271298      35.82066865 
H      20.70847343      18.67043969      35.77331503 
H      32.31809588      24.61293756      32.68291604 
H      33.14687158      26.19334226      32.87551525 
H      31.35556847      26.09445127      32.96874376 
H      25.84268276      19.50457930      11.45010326 
H      24.97203833      17.96005527      11.69587451 
H      24.47698357      19.06241698      10.36769932 
H      14.73596707      33.34866927      21.64248747 
H      15.60121179      34.46681267      20.54202017 
H      15.66679678      32.69081714      20.25889189 
H      15.15609908      26.21108454      32.87222285 
H      14.34938774      24.85033199      32.01045468 
H      16.07520544      24.72065756      32.48170722 
H      11.09082223      27.01234443      20.76792124 
H       9.76579129      27.05316567      21.98396478 
H      10.74681012      28.51873196      21.67618597 
H      22.45635087      11.78165731      17.43540929 
H      22.19500995      13.19167045      16.37428270 
H      23.26791629      11.84930226      15.83370985 
H      12.80566241      23.49408495      17.23336394 
H      12.15732299      25.14527041      16.95119999 
H      13.92792382      24.82640872      16.84440875 
H      22.54303234      11.97231619      28.01719616 
H      21.39994202      11.52945881      29.33061025 
H      20.80081502      12.35727594      27.84987863 
H      16.62633796      15.12787581      32.62088431 
H      17.51345836      15.79274957      34.02532783 
H      15.71632216      15.83686789      33.99963782 
H      13.28664178      16.19307192      21.29768250 
H      13.73793674      14.76468655      20.30905843 
H      13.68702043      14.64718852      22.09191114 
H      13.07394169      13.78177612      26.76166220 
H      12.97261212      15.39523835      27.55669918 
H      12.67754910      15.24707273      25.79352571 
H      27.74925024      32.64196472      15.93292948 
H      27.01535891      33.95345394      14.94704747 
H      27.25878712      34.16661532      16.71309313 
H      31.85848761      14.16660219      24.67244016 
H      32.19584273      13.64680713      26.35389510 
H      31.81557135      12.42058091      25.10450350 
H      18.32475529      12.87124196      18.11684153 
H      18.05945900      12.69632675      19.88216395 
H      17.75872221      14.27145369      19.09494704 
H      29.11903784      34.88452178      25.04464445 
H      29.15945595      34.63613858      26.81878031 
H      29.69740004      33.33272907      25.72046441 
H      12.01539357      23.59581379      28.75986200 
H      11.06587700      22.14145441      29.22396565 
H      12.73555539      22.37577072      29.85621881 
