699
Properties=species:S:1:pos:R:3 i=67 optimized=T E=-11498.1125679038 pbc="F F F" jobid=279_84-Ag-69_9-000002-PBE
Ag      33.15365666      25.41985399      26.12200719 
Ag      31.79885971      29.54746504      21.80471593 
Au      34.53573122      28.14641393      25.49971945 
Ag      29.96067781      15.16222055      19.76154298 
Au      34.13126494      19.61703790      23.84726536 
Au      27.41445379      22.94148002      13.16063715 
Ag      18.32047677      33.17669295      28.14069241 
Ag      28.40655234      30.61155900      18.11441689 
Ag      24.92604829      21.25121915      23.23865443 
Au      26.29677207      23.26556545      24.91362880 
Ag      28.15039016      25.12294462      23.63525330 
Ag      23.79525303      21.63878413      28.97971920 
Ag      23.36987911      27.89703356      26.94778626 
Ag      26.86108175      23.11737579      21.99458314 
Ag      22.38937425      19.54218028      27.32373563 
Ag      27.23114292      21.14636919      26.70128419 
Ag      22.03327739      21.50718478      22.71591937 
Au      21.01137236      23.54730456      20.84329762 
Ag      27.62888641      25.31439079      26.55207065 
Ag      19.96731361      24.03108445      26.66078036 
Ag      25.49034719      21.09760817      20.36864835 
Ag      24.32601114      25.77593262      28.74587744 
Ag      23.84012254      27.75118998      24.05051319 
Ag      26.22273418      27.65581457      27.55924123 
Ag      20.92803849      21.88881887      28.39703693 
Au      22.87001362      23.73822326      27.17547182 
Ag      21.48275685      21.68266981      25.57894091 
Ag      19.55504476      19.81667616      26.85432229 
Au      25.84578134      19.14838452      25.03503771 
Ag      25.29418084      23.60413105      30.68727248 
Au      22.94019427      25.42764211      19.57154151 
Au      21.00814665      27.97443661      23.51182231 
Ag      26.67112095      27.43932886      24.69028387 
Ag      22.57735262      21.34630715      19.81526102 
Ag      21.94182083      25.88212333      25.34367871 
Ag      27.17270905      25.50685772      29.43504901 
Ag      20.14702630      19.66766379      24.02530795 
Au      25.80987430      25.15300038      20.15252498 
Au      23.53863368      19.24453788      21.64220704 
Au      22.37222431      23.93253522      30.01937265 
Ag      21.07683248      17.44574017      25.79807950 
Ag      21.52206007      27.72201428      20.60018024 
Ag      24.33521929      27.48643797      21.21132367 
Ag      24.47590791      23.14443493      18.53014482 
Ag      28.60936319      23.16820800      28.43257177 
Ag      18.61160173      21.95452400      25.08197262 
Au      26.73079442      21.27788942      29.56340430 
Ag      22.35572898      30.06172225      25.09008485 
Au      27.16174755      27.24575631      21.79578594 
Au      21.82665303      19.74072331      30.20081204 
Au      18.51467919      26.37652046      27.65709288 
Ag      23.21101900      21.75936569      31.86076527 
Au      21.54982698      23.40638243      17.87761231 
Ag      17.08034437      24.28032729      26.19570869 
Ag      27.43069023      22.91265095      19.11739296 
Ag      23.90296839      17.16121855      26.27174541 
Ag      23.29372933      17.45178597      29.17817813 
Au      25.21458232      29.78820803      25.71335392 
Ag      21.67625815      17.26286147      22.89902281 
Ag      28.77138835      18.83125399      25.60880739 
Ag      22.82242205      29.86553812      22.19857425 
Au      25.30055608      25.40722480      23.06265025 
Au      20.03469283      25.65833518      18.92874997 
Ag      29.53941134      27.14529291      25.36806636 
Ag      19.40482737      24.23043291      29.52665160 
Au      18.01375246      22.15642658      27.92087705 
Au      20.04568437      28.33297865      29.31520450 
Ag      23.81148840      25.88717439      31.56265212 
Ag      20.98893986      26.28345691      31.13760562 
Ag      26.42656516      19.02515731      22.16263892 
Au      24.69490019      19.55315234      30.78163980 
Ag      20.43254863      17.62918852      28.65999599 
Au      28.81455489      24.92982757      20.74509550 
Ag      19.53536804      30.22315651      24.60114381 
Au      25.69514941      29.65033756      22.79605054 
Ag      24.83633787      27.22827910      18.27077133 
Ag      28.40396595      20.85009968      20.91510713 
Au      29.02694551      27.45517193      28.22052968 
Ag      30.06861737      20.88072613      27.28070352 
Au      18.12362272      23.89494414      20.30321568 
Ag      17.76632069      19.65491691      20.64676046 
Ag      25.67655467      27.79838993      30.42114979 
Au      28.14147135      23.44309588      31.29289063 
Ag      21.89679656      30.16626507      28.03274605 
Ag      21.83622880      24.13619332      32.84512901 
Ag      18.66290452      27.94944471      20.08868395 
Au      16.35234133      21.97257848      21.64815847 
Ag      30.47632554      25.10706447      27.18888524 
Au      23.41025151      23.55263968      24.33195506 
Ag      20.02648307      30.05224551      21.62843933 
Ag      16.65897498      20.03799769      26.36016909 
Au      26.78651323      17.04957303      26.81950852 
Au      29.93905300      25.20458447      30.04200219 
Ag      17.58889849      28.49245548      25.89154540 
Ag      16.18908972      26.34180635      24.34039121 
Ag      28.47112649      29.30960307      23.36135589 
Ag      27.73044971      26.97784943      18.98445662 
Au      24.09740211      19.08129769      18.71053807 
Ag      27.38655432      16.84016001      23.95081913 
Ag      26.93218245      18.83354334      19.26458898 
Ag      26.05231804      21.42369520      32.54648033 
Ag      12.56452147      18.85596231      21.90238305 
Ag      23.04035847      21.11367238      16.95246623 
Ag      26.23963004      29.29199700      19.87087556 
Ag      19.98040900      19.56205656      32.37159509 
Au      26.09760560      17.23219557      29.67715856 
Ag      29.27690453      18.70636361      22.71722572 
Ag      27.65009116      29.78907848      29.23243315 
Ag      15.21630489      22.36100927      27.38689137 
Ag      26.00004895      20.90087478      17.44586199 
Ag      24.59244353      23.86419530      33.44707635 
Ag      23.51170525      25.15901765      16.60806531 
Ag      17.58359548      17.95400294      28.13262447 
Ag      19.10513580      30.43910040      27.47135811 
Ag      23.43853077      29.55445892      19.33837500 
Ag      22.42427382      25.64044150      22.45627283 
Ag      16.18292455      20.20135026      29.30364218 
Ag      27.51379634      19.13358270      31.36646022 
Ag      29.06250705      29.04953730      20.55409395 
Ag      16.55513225      24.42892592      29.04949670 
Au      31.87748647      22.81549734      26.09813071 
Ag      16.70344973      21.68385487      18.79086819 
Au      24.77400848      31.68417886      20.74991191 
Ag      21.86174721      31.85699149      20.29231644 
Ag      20.64302032      25.46698308      16.08190801 
Ag      24.22801332      31.92436188      23.92118571 
Au      20.61026022      29.75457881      18.76291639 
Ag      23.14132511      15.02450950      21.59652805 
Ag      30.35614141      22.68706120      19.67890415 
Au      25.02751376      22.90627196      15.63421022 
Ag      18.67265813      23.64387138      17.34475122 
Ag      28.84914196      20.74173109      18.08290740 
Ag      17.63570880      22.35280114      30.89790699 
Ag      17.20192320      28.68869133      28.79221670 
Au      27.89531558      16.80576160      21.03857948 
Au      15.68648789      26.80433205      27.19309644 
Ag      18.99572359      15.66939501      27.08515811 
Au      19.64593624      15.45452869      23.99439626 
Au      18.15528154      26.66013394      30.70613806 
Au      20.19540516      15.40564009      21.21735270 
Ag      27.13221686      31.62388489      24.32906163 
Ag      24.96953255      15.15509889      28.18549200 
Au      23.93711549      23.32579124      21.43050922 
Ag      20.11415803      21.23047996      16.37359050 
Ag      27.85008198      22.78256985      16.07589293 
Au      31.23491996      20.52210523      21.67287940 
Ag      26.82091824      31.82429156      27.34213455 
Ag      25.60307903      14.91354916      25.17618962 
Ag      28.61953087      16.12981539      28.79331172 
Au      26.03367814      14.92497715      22.24132745 
Ag      32.55737454      22.63713509      23.27959881 
Ag      25.68287733      30.51894485      31.27277879 
Ag      22.92579769      30.85851187      30.67280969 
Ag      24.29586834      17.00460284      31.92326918 
Ag      31.28729662      17.91737774      24.68986978 
Ag      17.01617802      26.01976397      18.54598720 
Ag      31.60456173      22.94781901      28.89171290 
Ag      29.34935711      16.04955786      25.89671552 
Ag      15.57627157      29.25859076      23.98041108 
Au      16.10845956      28.97882209      21.06759379 
Ag      17.09479695      31.30227597      25.59699995 
Ag      29.32784708      24.85323299      17.90714388 
Ag      30.70002086      18.04165443      27.54940169 
Ag      18.62155605      17.43363024      30.81416071 
Au      24.10037976      19.62348419      33.52807545 
Ag      18.02024779      30.71724777      19.70132541 
Ag      17.49720208      31.00687532      22.64034370 
Au      14.23856057      27.09609522      22.39670612 
Ag      32.64828104      20.02130574      26.35576211 
Ag      24.80537259      25.60444813      25.92976361 
Ag      32.51192755      27.14144087      23.58760960 
Ag      24.83380798      20.10941041      14.94477050 
Ag      20.05767838      30.98440692      30.14798519 
Au      31.75241468      27.73753441      27.10990212 
Ag      23.73285156      28.57913090      32.44371823 
Ag      29.89243667      15.89920563      22.97716569 
Ag      22.49600473      17.05764608      34.36307617 
Ag      14.01903327      19.42212358      27.52986114 
Au      24.03413741      27.78077351      15.57314791 
Ag      15.56419505      17.58536283      30.56118313 
Au      25.63572570      25.60309389      14.68942970 
Au      28.94506496      30.40837002      32.16979421 
Au      22.70122841      30.04133950      16.67020226 
Ag      21.98491297      21.73383478      34.64512806 
Ag      31.20592469      28.11273074      30.05180440 
Au      19.29835159      14.14683129      29.55359265 
Ag      22.81980310      25.61582161      13.77526763 
Ag      16.13112644      15.16494691      27.92069576 
Ag      25.00907473      32.76433807      29.46173637 
Ag      26.63341759      14.72643337      31.06520903 
Au      28.65524318      13.41070887      24.08104517 
Ag      16.30427581      17.26872690      19.39953598 
Ag      16.11564002      17.29383672      23.18297526 
Ag      20.81535365      15.52428355      17.81641672 
Au      11.87601557      24.58788103      23.03465440 
Ag      14.89203408      29.93491049      27.07024128 
Ag      24.33707569      21.40180389      26.10086461 
Ag      14.95126545      19.91838843      20.32094007 
Au      25.37079799      31.27200017      18.07702918 
Ag      27.79417470      19.90156957      15.35341322 
Ag      29.97152432      27.05092990      22.50614853 
Ag      30.97857713      24.88634631      24.31251305 
Ag      31.68214542      24.91524402      21.59025191 
Au      20.50980121      23.78114556      23.77992141 
Au      25.24145133      14.79331010      16.12638800 
Au      30.85192679      29.49615850      24.81613952 
Ag      25.74880665      23.43741263      27.79981707 
Ag      26.87844177      27.70354700      16.34606383 
Ag      21.00340126      31.28391395      33.04676920 
Ag      17.66820576      24.04432037      23.26722534 
Ag      22.97004527      19.33459360      24.47731553 
Ag      27.78503202      20.99492099      23.80674179 
Au      19.59604945      25.91205896      21.90479080 
Au      25.05634062      30.79626419      14.76258988 
Au      25.19697374      19.33806447      27.88778306 
Au      19.04872069      26.11579861      24.80660209 
Ag      20.52447410      28.15224103      26.41886661 
Ag      21.42981504      26.02800963      28.22438682 
Ag      29.08037150      23.04368290      25.52837193 
Ag      19.18263510      21.74118841      22.17049426 
Au      24.52804467      17.04417448      23.43166610 
Ag      22.88257498      28.11376911      29.81234668 
Ag      20.70896215      19.50296931      21.13115303 
Ag      20.43839932      22.13971876      31.22182706 
Ag      24.81586246      29.96699452      28.61792349 
Au      18.04800932      28.26148316      22.97794161 
Ag      28.16917998      18.97314381      28.52027981 
Ag      19.01609748      20.05214244      29.67896858 
Ag      29.73950506      22.82858562      22.62327062 
Ag      19.62910633      21.57586862      19.21572264 
Ag      18.26183623      17.76031199      25.24209485 
Ag      15.75705374      22.19812265      24.50417579 
Au      16.65587294      26.12147551      21.39199240 
Ag      26.42958756      24.97952058      17.33254448 
Ag      28.08281180      29.49511464      26.21029183 
Au      17.23029320      19.89289495      23.50768413 
Au      18.85780136      17.65968045      22.41262154 
Ag      30.65884019      20.73929240      24.42796817 
Ag      22.00931798      27.47062535      17.70342861 
Ag      21.16264994      19.34142767      18.24547204 
Au      22.22638214      17.20942027      19.90509688 
Ag      22.01967203      15.42200005      27.59530026 
Ag      19.04469718      24.38270315      32.35178645 
Ag      26.52442196      25.69410077      32.34424410 
Ag      14.80716092      24.26127476      22.73159069 
Au      29.55377538      20.87746976      30.12080964 
Au      23.78418291      31.96388601      26.76022693 
Ag      22.54046944      15.13286758      24.69823336 
Ag      25.02234503      16.97494967      20.51476414 
Ag      28.47883454      27.69045241      31.10167976 
Au      19.34193166      17.52012298      19.53265482 
Ag      27.61358960      31.34054737      21.48915385 
Ag      15.27424097      24.00891832      19.88116580 
Au      21.41654247      17.17393437      31.37278682 
Ag      21.16375487      32.15651591      23.17350088 
Au      14.26334943      24.44683032      25.46270901 
Ag      22.23789815      22.98999979      14.95368205 
Ag      30.57413830      26.83873670      19.61087819 
Au      18.34386367      19.49009670      17.74644644 
Ag      22.89898456      18.23575581      16.27701575 
Au      15.57765620      17.43054336      26.05228362 
Ag      30.28760440      30.02798008      27.88817454 
Ag      29.81839815      18.40752631      19.72919852 
Ag      13.71870602      21.58588246      22.51467626 
Ag      30.34858896      17.69651339      30.66784999 
Ag      26.76439136      15.99536435      18.49559977 
Ag      20.82766012      32.32574263      26.24266236 
Au      19.10326262      27.95703241      17.25705796 
Au      25.83455704      18.05876143      16.68067159 
Ag      14.49824484      19.52641884      24.41805288 
Ag      19.06110724      33.23456953      20.97368031 
Au      23.71057795      22.04775762      12.57152940 
Ag      34.46296733      22.55357774      27.49494984 
Au      28.81522064      32.83555106      29.27348942 
Au      19.27516735      31.30154558      16.56903481 
Ag      23.72259711      15.15488889      18.74660375 
Ag      14.11206650      26.98644127      19.41460901 
Au      21.01151482      26.64891592      34.31433000 
Ag      19.72505685      28.61749405      32.13055936 
S      20.69649321      15.84304168      33.32183402 
S      28.58908359      32.56489065      19.57003981 
S      23.94246751      22.82429471      35.60421074 
S      24.19382676      18.29844384      35.55004065 
S      12.37409299      18.20291961      24.19376939 
S      32.28810628      17.24760232      29.26151903 
S      31.61880422      14.89454039      21.50047579 
S      29.63387191      18.82009234      16.70935509 
S      28.33292412      22.06286647      33.31710778 
S      23.13148028      27.65352838      34.68043936 
S      13.51355069      30.05751146      25.06636758 
S      16.30793604      18.23199134      17.15094953 
S      32.77161734      23.36560320      19.98060898 
S      26.93985457      30.60112441      33.39922795 
S      23.09293084      32.41229369      32.65657703 
S      17.15507412      31.62518068      17.54731968 
S      11.36359837      22.30363241      22.80948034 
S      25.07145220      13.09793647      26.81270679 
S      33.84969072      29.09384613      27.54478479 
S      28.66291196      26.51109592      33.32442324 
S      23.80224339      24.29537343      11.87702376 
S      27.55161485      25.29400585      13.19463288 
S      19.31042704      33.31680299      30.33917410 
S      28.93660934      17.57385028      32.64332684 
S      21.17424122      34.19159898      24.60548469 
S      30.69914202      32.45376188      27.91150393 
S      28.93602847      29.06569273      16.30114144 
S      33.61690444      17.32602458      24.01970564 
S      34.90489768      21.83321631      23.61993408 
S      19.27144061      13.64112578      25.55922783 
S      20.71295696      33.82919236      19.30653278 
S      12.65592204      19.41465053      19.56667435 
S      18.87763764      30.35027815      33.67109827 
S      31.79833045      31.33440548      23.50823345 
S      35.05265446      27.21034340      23.40261212 
S      31.15732258      30.23131368      31.36458857 
S      23.15343167      13.17551011      23.26189474 
S      32.17083214      19.32647869      19.76049394 
S      28.72986115      14.66268669      17.75234102 
S      15.64892508      30.54097323      29.31379687 
S      31.61190063      21.75332218      31.09712878 
S      20.63872827      26.78114354      13.99386858 
S      17.12481395      26.99172379      16.22950617 
S      27.44043075      12.91051287      22.12045234 
S      16.79524635      33.65356595      26.33255974 
S      15.25486636      21.67866589      31.12928832 
S      21.05726511      16.69642473      15.68928432 
S      24.63409418      28.94065730      13.38710516 
S      19.93356388      22.35271117      14.17519672 
S      21.22375248      31.38243787      15.24529388 
S      23.12136820      33.83924769      28.18223904 
S      13.68352888      17.46111563      29.04735901 
S      24.16659454      33.62948111      22.09151908 
S      27.56734067      20.59845203      12.95811158 
S      16.31490992      23.09382603      16.76673381 
S      26.00102349      16.51597729      14.71518798 
S      17.00439450      14.41339387      30.06056972 
S      28.63441249      13.93641483      29.94677533 
S      27.04354555      33.62948257      30.61678528 
S      32.51371491      28.37175192      19.79020289 
S      25.02091981      14.84729513      32.87177150 
S      14.45837901      29.40077510      19.31519227 
S      13.44922730      25.81387731      27.36710549 
S      34.59271339      20.17804128      27.90090647 
S      30.28681626      23.41609797      16.13345242 
S      18.84029163      25.71424558      34.46186782 
S      35.25551411      24.81923450      27.28695127 
S      19.74998770      20.77362302      34.50817149 
S      32.26565958      25.85677990      30.43173725 
S      23.44269667      19.72876358      12.92708179 
S      17.06712830      33.40499700      22.34245232 
S      15.75590429      26.15082018      30.71960755 
S      11.91578925      26.94871842      23.10920125 
S      24.41751552      13.09203096      17.52812236 
S      13.03831470      24.82093994      19.21278626 
S      21.56299091      13.58925684      29.23053672 
S      16.91438999      17.63963733      32.58795707 
S      15.82584017      15.77624038      21.25628012 
S      14.84826421      15.09039971      25.82753433 
S      25.42511065      32.68913502      16.10690494 
S      29.95241280      13.62876183      26.03548240 
S      20.28795978      13.73930924      19.42593119 
S      27.06742283      33.70881267      25.64797215 
S      12.86244218      21.59866261      27.23154492 
C      21.30701497      14.12556150      33.11459991 
C      30.37644571      32.86575136      19.87629100 
C      23.33686670      24.12903038      36.74966251 
C      23.41088038      19.22210011      36.92904813 
C      10.95612917      19.15430232      24.87074576 
C      32.40935431      15.41976181      29.12470496 
C      31.67121611      13.06650583      21.70230090 
C      31.24612016      19.40003430      16.04304103 
C      28.14136262      23.12190610      34.79963095 
C      22.82350034      29.06089072      35.81964048 
C      13.36113228      31.84303594      24.65444777 
C      16.89344187      16.87999845      16.05175896 
C      33.32906336      24.40267741      18.57071480 
C      26.86199555      32.31645887      34.04396845 
C      22.59201710      34.10845312      32.15174192 
C      17.02477725      33.45771777      17.58373961 
C      10.62605902      22.24673666      21.12570906 
C      26.60094202      12.20504394      27.29593270 
C      34.86376741      28.28047159      28.83691987 
C      28.31988748      27.58173884      34.77659195 
C      22.47279212      24.40725053      10.61024610 
C      27.04973742      25.91353493      11.54294726 
C      17.80784918      33.23387229      31.40093382 
C      29.80764719      18.55062941      33.93461090 
C      19.64367972      35.18097331      24.40409834 
C      32.17874362      32.79182256      28.94284939 
C      28.91364460      30.01728389      14.72831153 
C      34.47790896      16.71914783      25.52429220 
C      35.74181190      21.88341260      21.98481803 
C      17.69601394      12.85067408      25.04742728 
C      21.51389332      35.35762612      19.94078580 
C      12.64555671      17.84620496      18.60952880 
C      19.00805714      29.73773149      35.39923273 
C      33.52161783      31.62078181      24.07164155 
C      35.56341869      28.59870110      22.31418578 
C      32.08881579      29.75742889      32.87937646 
C      21.67041587      12.14950694      22.92330532 
C      33.32882452      18.04884327      20.37444949 
C      28.25218397      12.90747827      18.02875417 
C      14.41378246      29.85099761      30.48897696 
C      32.90544676      20.45964057      31.13555898 
C      19.46493589      25.94732935      12.85437261 
C      15.92600512      28.35477433      15.97481905 
C      26.40821268      11.45826443      22.56079652 
C      15.20457571      33.89079940      27.22533447 
C      15.04638171      20.81731424      32.73932134 
C      21.72207099      15.50517538      14.45807621 
C      23.08602460      29.37203954      12.50250326 
C      19.95660975      21.04562418      12.88248233 
C      21.74623885      33.13063027      15.44539683 
C      23.76546298      35.32265779      27.31503330 
C      12.22352229      17.92310891      30.07127558 
C      25.67727087      34.67165320      22.11297979 
C      29.24960090      20.31530762      12.26511212 
C      16.27200781      21.96745680      15.31809248 
C      27.77148959      16.15885646      14.40314098 
C      16.40534386      12.68003059      30.23922834 
C      29.83830451      13.87608508      31.33547629 
C      26.98559844      35.42688529      30.22505825 
C      32.48986348      29.57684171      18.40126780 
C      26.10239817      15.26565688      34.30093119 
C      13.02086677      30.14809307      20.18031629 
C      12.18415431      27.00295707      26.79207502 
C      36.15732860      19.73089367      27.04584694 
C      30.76686039      24.46771022      14.70296169 
C      18.91322457      24.56276082      35.89247025 
C      36.53163647      24.68159120      25.96980181 
C      19.61418083      19.47954532      35.80698991 
C      32.46011897      25.59524712      32.23876380 
C      24.49195962      18.87652160      11.68429314 
C      15.66351179      33.50164405      21.15906542 
C      15.36905243      25.40098420      32.34688443 
C      10.83916022      27.38123332      21.68515673 
C      22.93816971      12.39972106      16.68624403 
C      12.83044320      24.49077660      17.41658648 
C      21.52003288      12.05452106      28.22452151 
C      16.79241497      15.99849855      33.40073426 
C      14.05196657      15.30291719      21.19705329 
C      13.07222507      15.05295899      26.28370341 
C      27.14804150      33.25842292      15.84686971 
C      31.69568121      13.45190159      25.48556371 
C      18.53743766      13.26913598      19.12097280 
C      28.74925872      34.44788527      25.60755109 
C      12.06765916      21.99750596      28.83832117 
H      22.38711748      14.10092690      32.93174241 
H      21.07567180      13.58344111      34.03917723 
H      20.77462980      13.67154720      32.26980339 
H      30.85481767      33.14853494      18.93204893 
H      30.46360602      33.69125168      20.59229694 
H      30.87421044      31.98252977      20.29451179 
H      24.21141196      24.64721263      37.16056999 
H      22.70092169      24.85779729      36.23409185 
H      22.77885794      23.65385560      37.56401125 
H      23.35350306      18.54432213      37.78919084 
H      24.04657184      20.08260006      37.16722991 
H      22.40880139      19.57851173      36.67045239 
H      11.06657707      19.19571426      25.96086084 
H      10.92367403      20.17549462      24.47615742 
H      10.03502725      18.62265336      24.60711968 
H      33.16453911      15.19342051      28.36252178 
H      32.73980006      15.01656005      30.08852479 
H      31.45399881      14.96344232      28.83974124 
H      30.67940399      12.65319427      21.91651218 
H      32.06925718      12.62249454      20.78317239 
H      32.34683765      12.83661527      22.53453575 
H      31.20158774      20.46155398      15.77194118 
H      32.00943129      19.25597698      16.81774726 
H      31.48962671      18.79585614      15.16147983 
H      28.09276691      22.46054214      35.67295477 
H      29.01133273      23.78456558      34.86932083 
H      27.22879110      23.72844829      34.74910304 
H      22.16195952      29.80970219      35.36642573 
H      22.38963910      28.68849532      36.75384245 
H      23.79785077      29.52056423      36.02598853 
H      12.72588203      32.32692272      25.40493505 
H      14.33802366      32.33859778      24.61974712 
H      12.88101950      31.91879177      23.67164707 
H      17.03973840      17.29734247      15.04858883 
H      17.84038715      16.45585990      16.40357150 
H      16.12173904      16.10257980      16.01794287 
H      32.48580309      24.93655097      18.11464039 
H      34.07657903      25.12355416      18.91897499 
H      33.77407738      23.73301342      17.82512251 
H      27.14586837      33.04109777      33.27374077 
H      25.82505808      32.49855826      34.35163683 
H      27.53140535      32.39115623      34.90799942 
H      21.70137032      34.09271608      31.51313024 
H      22.38989317      34.68884249      33.05898682 
H      23.42585527      34.56041408      31.60096888 
H      16.10490563      33.71137197      18.12362898 
H      17.88733525      33.91241214      18.08386394 
H      16.95373289      33.82376244      16.55362659 
H      11.24746928      22.78947607      20.40482850 
H      10.55166896      21.19330682      20.82864479 
H       9.62709584      22.69406256      21.17116560 
H      27.43298665      12.88516245      27.50219658 
H      26.38898844      11.62007620      28.19841432 
H      26.88197945      11.53207974      26.47719494 
H      35.85716402      28.74369396      28.82710149 
H      34.37669313      28.45965304      29.80321836 
H      34.94962885      27.20231152      28.65861491 
H      28.41468448      26.95789231      35.67364633 
H      29.05207903      28.39666901      34.81478374 
H      27.31611636      28.01433258      34.73368755 
H      22.43472839      25.44762289      10.26535766 
H      22.72173738      23.75275962       9.76793307 
H      21.50061298      24.12606848      11.02760665 
H      26.13012418      25.42672666      11.20099513 
H      26.88496182      26.99357573      11.64021960 
H      27.87176291      25.72021320      10.84451455 
H      18.11516662      32.97994304      32.42222876 
H      17.32912459      34.21955921      31.38944491 
H      17.10505227      32.47711316      31.03375334 
H      30.73620158      18.03662955      34.20610802 
H      30.02408310      19.56773803      33.58991855 
H      29.14958451      18.60502912      34.81000238 
H      18.74203848      34.56177368      24.39231040 
H      19.58011639      35.88488587      25.24217456 
H      19.71131754      35.73774891      23.46181351 
H      32.09623000      32.31768362      29.92624456 
H      33.04472719      32.38177973      28.40918577 
H      32.28504864      33.87710702      29.04823351 
H      29.67370099      30.80550578      14.77105309 
H      29.15838921      29.32389343      13.91466558 
H      27.92471494      30.45635461      14.53772508 
H      34.19799093      15.66560009      25.64498375 
H      35.55985149      16.79154955      25.36913614 
H      34.18438435      17.28227457      26.41794710 
H      35.04492985      21.64588902      21.17402059 
H      36.11053518      22.90749311      21.84932902 
H      36.58555096      21.18532198      21.98834656 
H      17.28041992      12.32155979      25.91350157 
H      16.96717892      13.58567672      24.69289341 
H      17.91709134      12.13328886      24.24838929 
H      22.30023590      35.63664836      19.22913021 
H      20.77074586      36.16045595      19.99615010 
H      21.96762552      35.19149509      20.92411423 
H      12.94816027      18.08376135      17.58329493 
H      13.34368055      17.10961822      19.02066214 
H      11.62826552      17.43921872      18.61465169 
H      19.14423591      30.59012591      36.07351058 
H      18.06781746      29.22566149      35.63532946 
H      19.83251949      29.02583756      35.51824404 
H      34.03050710      30.67911910      24.31625430 
H      34.06792631      32.15021459      23.28229484 
H      33.48019505      32.24625310      24.97154357 
H      35.55414797      28.21714558      21.28636497 
H      34.87283154      29.44555187      22.38049357 
H      36.57550870      28.91618704      22.58839359 
H      31.68415603      28.84079416      33.32024554 
H      33.13415290      29.59603987      32.58994939 
H      32.03316948      30.57701040      33.60453854 
H      21.50634972      11.49628374      23.78799266 
H      20.78581105      12.77753357      22.76569716 
H      21.85741458      11.54654855      22.02769961 
H      33.60260347      17.41571425      19.52144027 
H      34.22307644      18.54265220      20.77283633 
H      32.88200804      17.42131266      21.15101077 
H      27.45639052      12.64839249      17.32023106 
H      29.13102311      12.27871645      17.84631429 
H      27.89327404      12.74702202      19.05112839 
H      13.44130805      30.32141509      30.30831305 
H      14.33372253      28.76265617      30.38894144 
H      14.75449983      30.09038346      31.50363939 
H      32.67032889      19.75380475      31.94134370 
H      32.98715004      19.92070857      30.18780260 
H      33.86228818      20.95320196      31.34464744 
H      19.55118085      24.85589654      12.91989026 
H      18.44960368      26.24650290      13.14244943 
H      19.66981270      26.28114275      11.83045316 
H      15.84271375      29.00735683      16.84871096 
H      16.25376495      28.94559199      15.11172792 
H      14.94937925      27.90119173      15.76452857 
H      27.07085842      10.61187139      22.77202036 
H      25.76364353      11.67360413      23.41964780 
H      25.78163120      11.23527123      21.68881736 
H      14.40877853      33.99119800      26.47845534 
H      14.98277110      33.04775050      27.88977897 
H      15.26852487      34.81631466      27.80852912 
H      14.75607951      21.56715993      33.48483064 
H      14.25140800      20.06808304      32.64638850 
H      15.96700418      20.31849447      33.05696250 
H      21.84942123      16.03937610      13.50876381 
H      22.69109399      15.09526652      14.77257348 
H      20.99962490      14.69268690      14.32134381 
H      22.35640716      29.83947122      13.17242250 
H      23.34128072      30.05532065      11.68456713 
H      22.66539710      28.44122917      12.10306230 
H      18.91615103      20.79344937      12.64595939 
H      20.45715446      21.43252206      11.98738235 
H      20.48557660      20.15012843      13.22239354 
H      22.74903334      33.23205027      15.01417694 
H      21.03557247      33.75863213      14.89603005 
H      21.75982005      33.41929901      16.50219504 
H      23.75134023      36.15924403      28.02389174 
H      24.78455117      35.15562221      26.94675929 
H      23.09767198      35.53384052      26.46982885 
H      12.09824580      17.18577152      30.87232818 
H      12.34496050      18.92119082      30.50404127 
H      11.33615914      17.91215843      29.42706973 
H      25.99690454      34.86916240      21.08436567 
H      25.40882331      35.61103760      22.61197488 
H      26.48274226      34.18381844      22.67497314 
H      30.02297475      20.75683923      12.90108036 
H      29.40260577      19.23136750      12.19892615 
H      29.29676393      20.75224303      11.26127003 
H      15.25048234      21.58518523      15.21108975 
H      16.55672530      22.54066578      14.42883067 
H      16.96608223      21.12949003      15.45252947 
H      28.28892357      15.86397739      15.32329289 
H      27.82699224      15.35185517      13.66364391 
H      28.22462340      17.07194160      13.99762768 
H      15.31841112      12.72033846      30.37631411 
H      16.64366275      12.08169963      29.35504550 
H      16.87288412      12.23644134      31.12548010 
H      30.82703700      13.64982826      30.92044492 
H      29.87689306      14.82526161      31.88224356 
H      29.54048255      13.06989364      32.01522883 
H      26.86383294      35.59430439      29.15028021 
H      26.13354060      35.85755770      30.76452314 
H      27.91323420      35.89496227      30.57333163 
H      32.91196343      29.07734060      17.52112801 
H      31.47088973      29.90700991      18.16753890 
H      33.11332215      30.43778037      18.66604660 
H      26.84467200      16.02535186      34.03049693 
H      25.47446859      15.64213326      35.11682900 
H      26.61352410      14.35013963      34.61960036 
H      12.89650225      29.72408777      21.18214833 
H      13.19922262      31.22712742      20.25969373 
H      12.12006737      29.96965824      19.58199644 
H      12.47645863      27.50331427      25.86478555 
H      11.25334792      26.44707430      26.62596153 
H      12.03573182      27.75068125      27.58070785 
H      36.14385519      20.03559281      25.99308183 
H      36.99230046      20.21555734      27.56380884 
H      36.27689895      18.64290157      27.10829279 
H      30.18594541      25.39452700      14.67410010 
H      31.83295111      24.70145754      14.80747137 
H      30.59788797      23.91294974      13.77280693 
H      19.63570666      23.75592578      35.72548683 
H      19.16912806      25.12546863      36.79642871 
H      17.91250243      24.12725893      36.00165660 
H      36.70410083      25.67929928      25.54898148 
H      37.45369590      24.30361923      26.42586822 
H      36.21131546      24.00088295      25.17320168 
H      19.68243312      19.94860701      36.79506481 
H      18.63290461      19.00236776      35.69621689 
H      20.39396787      18.71399104      35.70274099 
H      32.58181063      24.52007319      32.41908849 
H      33.36011407      26.13212236      32.56155136 
H      31.58440443      25.96212859      32.78747518 
H      25.47803473      19.34643499      11.60736501 
H      24.60698953      17.83719974      12.01538249 
H      23.97765561      18.90698639      10.71735066 
H      14.73550855      33.45327814      21.74111277 
H      15.71085699      34.46048182      20.63089079 
H      15.68327437      32.67751125      20.43681140 
H      15.69756679      26.07413823      33.14624618 
H      14.28110734      25.26868341      32.39088835 
H      15.85373006      24.42238369      32.45139157 
H      11.18378691      26.89624999      20.76522782 
H       9.81871323      27.05784647      21.92077191 
H      10.85983514      28.47090850      21.56958514 
H      22.43427503      11.75031303      17.41185298 
H      22.24348130      13.18550239      16.37156589 
H      23.26191597      11.81250905      15.81996373 
H      12.37023375      23.50040197      17.31504220 
H      12.16731973      25.24913428      16.98680433 
H      13.79619715      24.48913363      16.89908384 
H      22.54215283      11.88900152      27.85929379 
H      21.20785392      11.22107530      28.86286461 
H      20.83777604      12.16107039      27.37346876 
H      16.64300418      15.20714162      32.65831523 
H      17.72651756      15.81313622      33.94433313 
H      15.94807531      16.02375817      34.09916896 
H      13.39082254      16.17793260      21.25080866 
H      13.85661073      14.74624559      20.27358433 
H      13.85303891      14.65660932      22.06051867 
H      12.76974227      14.00109098      26.35043391 
H      12.90715937      15.55503826      27.24379314 
H      12.50286571      15.56389958      25.49804864 
H      27.86220102      32.43038072      15.90199288 
H      27.20287975      33.74032579      14.86402323 
H      27.37594607      33.98256206      16.63758227 
H      31.94093594      14.15972358      24.68568941 
H      32.32614560      13.65000158      26.36092149 
H      31.86090965      12.42415153      25.14426116 
H      18.48377923      12.75637801      18.15374136 
H      18.22332790      12.58497254      19.91800362 
H      17.87863736      14.14426530      19.11963517 
H      28.77109877      35.18349229      24.79477808 
H      28.94686421      34.94726646      26.56300989 
H      29.52095687      33.69055555      25.43918352 
H      11.79054781      23.05863708      28.82498978 
H      11.16517404      21.38449450      28.94448762 
H      12.74957340      21.81326928      29.67730741 
