156
Properties=species:S:1:pos:R:3 i=126 optimized=T E=-1715.7018615845 pbc="F F F" jobid=36_24-Ag-69_4-000003-PBE
Ag      16.09958669      15.78773844      14.38193657 
Ag      15.99281875      18.45064325      15.78747263 
Ag      17.88994763      16.32452544      16.75127985 
Au      16.83692290      14.03722650      17.99622789 
Ag      14.95825105      15.97115692      17.13691051 
Au      17.61523729      19.06615444      18.05312400 
Au      14.35101341      17.88684830      13.54231441 
Au      19.13343821      18.57553737      15.47607555 
Au      17.07344760      18.20360911      13.16402261 
Au      19.14831695      16.18128953      14.12205077 
Ag      15.10288724      13.33348882      15.62114150 
Ag      13.05604435      17.95529921      16.26227135 
Ag      15.88584696      21.01559054      16.92960875 
Ag      17.36110425      21.06721985      14.34947946 
Ag      14.91359459      18.76291360      18.45994111 
Ag      19.95845301      13.88513820      17.71734058 
Ag      17.84744866      13.68346604      15.17547845 
Ag      13.12680716      15.49000044      14.97250595 
Ag      14.04992701      15.23497175      11.84194087 
Ag      13.93423682      13.34765195      18.53765008 
Ag      17.30180891      15.69297966      11.48372230 
Ag      16.67569384      16.47897752      19.37459090 
Ag      12.21519230      15.64514658      17.66674634 
Au      13.51342779      16.32945328      20.22003647 
Ag      19.66503506      16.77026081      19.28339888 
Au      13.90261698      20.78795512      14.63277522 
Au      20.75387834      18.56426740      12.27498772 
Ag      16.05247626      13.38071596      12.96303411 
Ag      20.72831604      16.44759792      16.46083904 
Ag       9.41522510      16.23758807      16.76614431 
Ag      10.59914773      17.85974668      14.02976083 
Au      23.06647956      17.17452976      14.78673227 
Ag      16.80843280      19.64265596      21.21257542 
Ag      16.23816923      22.64673681      19.39221518 
Au      16.71396759      10.46902725      16.83178106 
Ag      16.06891273      10.43504583      13.30161886 
S      16.51960817      17.30347409      21.69632757 
S      20.15401195      14.52236574      20.03127984 
S      23.02873881      18.02721906      12.59625107 
S      23.17419833      16.36549278      16.99587064 
S      18.63881019      19.43726167      11.74134785 
S      19.64816887      15.22405236      11.93756129 
S      15.39397557      16.18383740      10.07582880 
S      13.55542515      11.75720401      16.76387926 
S      14.06386770      14.12575148      20.84395497 
S      20.21243538      12.97483613      15.50401487 
S      12.26182974      17.92121854      12.29363319 
S      12.01134135      20.19708868      15.91263937 
S      12.51446854      13.91175134      13.16483061 
S      10.06579428      14.75933600      18.54336640 
S      12.83051197      18.54551660      19.79043923 
S      19.39323998      20.98915178      15.65729098 
S      19.54503886      19.17597970      19.55587071 
S      15.41752212      21.66358816      13.04136115 
S      15.59808377      23.46787535      17.23334075 
S      17.05859903      22.01704031      21.53054749 
S      17.56109414      11.75752372      18.59261036 
S      16.10483217      11.62726435      11.21343321 
S       8.46710734      17.68861200      15.12403831 
S      15.92068594       8.98289772      15.19916036 
C      17.17079716      24.23500408      16.65054336 
C      15.76056307      22.50472276      22.74192765 
C      15.18924797      23.47336115      13.27186465 
C      12.12982180      19.58552997      11.53109774 
C       8.27242024      19.28762882      16.01623507 
C      12.06098025      21.23348968      17.42674758 
C      13.04753433      19.42673872      21.39053031 
C       9.67522676      15.77835404      20.02970373 
C      12.50499972      13.42615628      21.52565262 
C      11.81540169      11.99226175      16.22471447 
C      10.83399768      14.30620634      12.52330121 
C      18.33365699      18.93183331      10.00470698 
C      15.53238749      14.86607977       8.79750199 
C      14.36803615      11.45889855      10.61992795 
C      20.29876526      11.15149003      15.73395915 
C      23.66735555      14.60545377      16.77582344 
C      20.99105197      19.90091830      18.69083676 
C      20.76927078      21.49738674      14.55015803 
C      23.26120333      16.53155631      11.55442481 
C      18.05296395      16.85913360      22.61150426 
C      21.95489748      14.62807924      20.39540460 
C      16.61110072      11.24059438      20.07478441 
C      19.80413364      13.39788950      11.99100358 
C      17.27903595       7.76267742      14.96650163 
H      11.64090633      11.32496603      15.37304059 
H      11.62962200      13.02525833      15.90919224 
H      11.14768633      11.72826258      17.05156623 
H      10.66264447      13.70899356      11.62023866 
H      10.73040094      15.36967321      12.28337979 
H      10.09951195      14.02883189      13.28837077 
H      12.68783369      12.36686582      21.74263553 
H      11.68289960      13.51349444      20.80658889 
H      12.25571706      13.95173093      22.45412990 
H       8.58675396      15.84639183      20.13332918 
H      10.10814933      16.78105750      19.96041908 
H      10.09282399      15.27464247      20.90946030 
H       7.93892097      20.03903472      15.29132685 
H       9.21532139      19.61559785      16.46511870 
H       7.50836363      19.16566237      16.79144918 
H      11.89915764      22.27879886      17.14297657 
H      13.02059306      21.12947586      17.94663564 
H      11.25592967      20.89143760      18.08724987 
H      12.94590754      20.50008100      21.18958713 
H      14.03108195      19.22356923      21.82963924 
H      12.25740636      19.10451418      22.07790903 
H      18.12749555      15.76680117      22.64924796 
H      17.97128235      17.26131896      23.62763909 
H      18.94746897      17.26439362      22.12542231 
H      15.73148701      23.59871341      22.79967098 
H      16.03843658      22.09763369      23.72090392 
H      14.77305942      22.12819123      22.46068530 
H      20.81550036      20.97403217      18.55957821 
H      21.13818021      19.43481184      17.71037808 
H      21.87097230      19.73656219      19.32317821 
H      20.72667311      22.58738933      14.44070360 
H      20.69830704      21.01865227      13.56636397 
H      21.71409900      21.21060778      15.02622205 
H      22.36757156      13.61304478      20.41904813 
H      22.08046343      15.09477965      21.37937192 
H      22.48160398      15.22558389      19.64306359 
H      24.70133003      14.57171128      16.41627650 
H      23.00315616      14.08290751      16.07981271 
H      23.60649774      14.12424585      17.75952678 
H      20.27109966      10.68935918      14.73969869 
H      19.45762395      10.77682826      16.32984792 
H      21.24459689      10.89922956      16.22630808 
H      16.91718748      10.22079530      20.33366929 
H      15.53232396      11.27494239      19.88633529 
H      16.86679908      11.92883534      20.88817637 
H      14.25780047      12.07889774       9.72220129 
H      13.64882844      11.79381184      11.37503241 
H      14.18254912      10.41078642      10.36165309 
H      17.00583997       7.11657507      14.12414553 
H      17.36097349       7.15981995      15.87787476 
H      18.23546104       8.25095374      14.76043474 
H      12.93153292      19.68511955      10.79086746 
H      12.22873066      20.37414749      12.28628077 
H      11.15423554      19.65403084      11.03642528 
H      16.02038693      23.98545216      12.77338049 
H      15.16650334      23.73435664      14.33598098 
H      14.24342219      23.76640088      12.80186745 
H      19.03036621      19.48562421       9.36530362 
H      17.29989819      19.19863969       9.75826367 
H      18.47288117      17.85313246       9.87335662 
H      19.84884685      13.04315857      10.95480885 
H      18.95156221      12.93550890      12.50283691 
H      20.72459533      13.13933278      12.52509309 
H      23.22845268      16.85136898      10.50661017 
H      22.47269877      15.79512613      11.74224866 
H      24.24684012      16.11140517      11.78223555 
H      17.05601487      24.48673108      15.58932807 
H      18.02116074      23.55522830      16.76293416 
H      17.34766336      25.15193792      17.22324847 
H      16.28313361      15.17629774       8.06143668 
H      14.56113665      14.75641877       8.30175157 
H      15.83317416      13.90972054       9.24018732 
