156
Properties=species:S:1:pos:R:3 i=90 optimized=T E=-1647.7088542067 pbc="F F F" jobid=36_24-Ag-19_4-000008-PBE
Ag      16.09102828      15.81915013      14.40227664 
Au      15.98857252      18.49289802      15.83100125 
Au      17.84782550      16.26414652      16.82385241 
Au      16.71831395      13.95009758      18.07265288 
Au      14.94894197      15.95257314      17.18474250 
Au      17.60841303      19.11747564      18.17468244 
Au      14.38300745      17.99254966      13.64064875 
Au      19.04633619      18.58284047      15.61747928 
Ag      17.19020462      18.24848431      13.23176669 
Au      19.09791440      16.11419015      14.26733430 
Ag      15.07791298      13.31981742      15.64221228 
Au      13.01349252      17.91103265      16.37504243 
Au      15.90450684      21.05458333      16.99250666 
Au      17.40108191      21.32324293      14.39387613 
Au      14.85315610      18.91279125      18.52373199 
Ag      19.96556858      13.79245577      17.73183426 
Ag      17.86388418      13.60341187      15.26411040 
Au      13.08649657      15.44535045      15.04140271 
Au      13.91804493      14.95476031      11.79765235 
Au      13.75828750      13.13142860      18.80250870 
Au      17.37192063      15.67524492      11.35350912 
Au      16.70297252      16.47274699      19.39271747 
Au      12.25229263      15.54392986      17.76632743 
Ag      13.65162068      16.36532083      20.25095798 
Au      19.84600175      16.76382772      19.57814860 
Au      13.86103954      20.84718842      14.68922644 
Au      20.65768793      18.73899619      11.95062120 
Au      16.15189698      13.39034416      13.05690387 
Au      20.63315009      16.46685445      16.64866601 
Au       9.39235395      16.29384368      16.61890434 
Au      10.71443688      17.77528291      13.49252235 
Au      22.92806863      17.30513242      14.48066602 
Ag      16.87041108      19.60528371      21.22829382 
Au      16.42068037      22.70663320      19.61830113 
Au      16.77353167      10.42820936      16.96331173 
Au      16.18902562      10.25713817      13.38169607 
S      16.38283146      17.26910782      21.65710312 
S      20.18313556      14.47635004      20.04616460 
S      22.92815674      18.19462322      12.30489355 
S      23.05899054      16.49803005      16.69095283 
S      18.49798731      19.54955771      11.54353064 
S      19.62020607      15.38973849      12.01375665 
S      15.31199974      16.06041392      10.25145560 
S      13.60304383      11.74976776      16.90137073 
S      13.91908975      14.06564591      20.97281402 
S      20.22891550      12.86590441      15.52712626 
S      12.53754495      18.07068104      12.04066846 
S      11.98761902      20.07085793      15.89844731 
S      12.47732885      13.86603899      13.30203330 
S       9.99083306      15.09966358      18.56298029 
S      12.91253430      18.65836519      19.93366362 
S      19.39612958      20.98006369      15.59669756 
S      19.57936647      19.10954545      19.60828107 
S      15.43033555      21.79040373      13.18248596 
S      15.68247479      23.43457039      17.50221373 
S      17.28282442      21.96046452      21.65504403 
S      17.56794033      11.76123474      18.71587580 
S      16.23163948      11.54007302      11.41137165 
S       8.69980080      17.40317935      14.66726770 
S      16.04546492       8.92651116      15.30529959 
C      17.18193875      24.24398461      16.80854372 
C      16.06506652      22.46834130      22.93606836 
C      15.15084434      23.59222191      13.40164794 
C      12.37720070      19.80661617      11.46572278 
C       8.23944694      19.07949288      15.26325938 
C      11.94001307      21.09338725      17.41950906 
C      13.22516622      19.56639751      21.49959524 
C       9.71217472      16.31293352      19.91663776 
C      12.31002425      13.57410264      21.71380361 
C      11.86930841      11.90118491      16.31761072 
C      10.76497091      14.22597586      12.75152395 
C      18.09335527      18.97184087       9.84934918 
C      15.44656730      14.91969929       8.81670333 
C      14.52313992      11.35566442      10.75770899 
C      20.25759050      11.03671951      15.71084663 
C      23.57787135      14.74604997      16.48378630 
C      21.00012265      19.82847080      18.70004458 
C      20.78374086      21.36207386      14.46209743 
C      23.19978217      16.72440339      11.23627307 
C      17.74979189      16.61190018      22.68987610 
C      21.98406183      14.40505799      20.41042225 
C      16.62704271      11.22700946      20.19727766 
C      19.87700753      13.57317652      12.00690989 
C      17.41573159       7.71172610      15.14013627 
H      11.80491671      11.38488461      15.35295339 
H      11.58457868      12.95141649      16.19029023 
H      11.20916820      11.41725465      17.04550832 
H      10.57092151      13.63824400      11.84695029 
H      10.62471476      15.29552667      12.54938619 
H      10.08695556      13.91188464      13.55414920 
H      12.33647470      12.50008159      21.93116515 
H      11.47762986      13.78736126      21.03497919 
H      12.18349658      14.13381998      22.64787869 
H       8.63114652      16.43203051      20.05045737 
H      10.17862038      17.27745203      19.69526865 
H      10.15558133      15.89994058      20.83062039 
H       7.93068877      19.66617240      14.39046124 
H       9.08386548      19.56854142      15.75917060 
H       7.39606618      18.97256852      15.95410820 
H      11.59552819      22.09459410      17.13696927 
H      12.92842092      21.14798744      17.88877089 
H      11.23273846      20.62791394      18.11484823 
H      13.29555512      20.63684459      21.27413132 
H      14.14575957      19.22873414      21.98840722 
H      12.36983162      19.38440907      22.16178223 
H      17.62291068      15.52708449      22.77846082 
H      17.67850230      17.07813117      23.67929348 
H      18.72438693      16.82944025      22.23688960 
H      16.08597760      23.56042453      23.02395126 
H      16.37817844      22.01875331      23.88567360 
H      15.05206103      22.13768177      22.69070738 
H      20.79673506      20.89529879      18.55548822 
H      21.12910105      19.33812592      17.72875391 
H      21.89539936      19.69319547      19.31730012 
H      20.80782262      22.44767119      14.31289659 
H      20.67411145      20.84810394      13.49837068 
H      21.70806416      21.03055169      14.95010182 
H      22.28209336      13.35016443      20.42575850 
H      22.16106594      14.85051161      21.39607131 
H      22.56556770      14.94473877      19.65635651 
H      24.60869711      14.73983442      16.11244799 
H      22.91696678      14.20851475      15.79651027 
H      23.53711270      14.26877299      17.47013934 
H      20.15540701      10.59794722      14.71084537 
H      19.43663437      10.67891327      16.34470480 
H      21.21899145      10.73950489      16.14473973 
H      16.93463729      10.20420453      20.44149570 
H      15.54713721      11.27258138      20.01348485 
H      16.88922723      11.90651653      21.01609322 
H      14.37998379      12.10446765       9.96956044 
H      13.77787955      11.51513284      11.54252625 
H      14.42231237      10.34848886      10.33777816 
H      17.17709690       7.05169188      14.29840465 
H      17.45916605       7.12874485      16.06713534 
H      18.37507064       8.20636056      14.96536150 
H      13.26944186      20.03983627      10.87339298 
H      12.30922624      20.50092914      12.31140030 
H      11.48169625      19.87732990      10.83823085 
H      15.97498154      24.12748500      12.91655601 
H      15.09424181      23.85811733      14.46218990 
H      14.20475953      23.84478148      12.90850746 
H      18.75192945      19.48020319       9.13671331 
H      17.05034519      19.24509525       9.65166996 
H      18.20427018      17.88441579       9.76211144 
H      19.95125688      13.25216542      10.96184444 
H      19.05005635      13.05432539      12.50515180 
H      20.81037771      13.36496428      12.54137322 
H      23.17655622      17.06573614      10.19499264 
H      22.42327316      15.97001233      11.39674071 
H      24.18866385      16.31425531      11.46846873 
H      17.03872618      24.36366154      15.72812049 
H      18.07715274      23.64179403      16.98668745 
H      17.28538873      25.22620228      17.28374614 
H      16.16879692      15.34867387       8.11227534 
H      14.46072923      14.85538435       8.34207201 
H      15.78228079      13.92577324       9.12878042 
