156
Properties=species:S:1:pos:R:3 i=80 optimized=T E=-1636.3710663177 pbc="F F F" jobid=36_24-Ag-11_1-000003-PBE
Au      16.14336462      15.79053553      14.35671800 
Ag      16.00150870      18.47580181      15.77377631 
Au      17.89163740      16.30555213      16.79431165 
Au      16.80584630      13.96380281      18.07233739 
Au      14.98976731      15.93229835      17.17430926 
Au      17.61417471      19.13135864      18.16169636 
Au      14.34607957      17.81173990      13.50204924 
Au      19.09531634      18.62065763      15.60289868 
Au      17.11039984      18.11724693      13.12624769 
Au      19.23187669      16.21568836      14.18520811 
Ag      15.17771670      13.26498431      15.64231090 
Au      13.07144181      17.86521472      16.29725505 
Au      15.91026668      21.03227364      16.99732185 
Au      17.44167157      21.37060161      14.44684294 
Au      14.87007751      18.88304112      18.46887850 
Au      20.21241134      13.71808700      17.73597728 
Au      17.92228297      13.71800691      15.14832371 
Au      13.18092347      15.37055019      15.00951135 
Au      13.96226229      14.94933609      11.70798925 
Au      13.77672552      13.11175461      18.74149131 
Au      17.44213142      15.60886712      11.23483124 
Au      16.73959603      16.50677214      19.35733948 
Au      12.26447594      15.51118210      17.68652318 
Ag      13.65141909      16.33724236      20.16985809 
Au      19.89202942      16.81578303      19.52319679 
Au      13.93156978      20.77146794      14.64623646 
Au      20.61065888      18.78883478      12.04990653 
Au      16.17697516      13.38059603      12.96996793 
Au      20.67806643      16.46873767      16.61333371 
Au       9.33768461      16.36814610      16.57037739 
Au      10.56757009      17.89464630      13.47610871 
Ag      22.72473990      17.35796851      14.57113997 
Au      16.84787233      19.47971403      21.57306525 
Au      16.41143286      22.58266763      19.64762345 
Au      16.72695158      10.39304048      17.12654810 
Au      16.05763768      10.17544791      13.56769875 
S      16.44864618      17.17126919      21.68478034 
S      20.34731194      14.52787880      19.94633978 
S      22.88891154      18.30154748      12.36426241 
S      23.09675849      16.47552140      16.80541570 
S      18.42429481      19.55584848      11.67189876 
S      19.68558769      15.38729367      11.93814550 
S      15.38161638      15.96110503      10.12054613 
S      13.62407818      11.73022775      16.84016316 
S      13.95942878      14.05355262      20.90756866 
S      20.17158920      12.85591566      15.55095434 
S      12.40826496      18.10861114      12.03903028 
S      12.02784277      20.00906801      15.81479014 
S      12.51440669      13.87770305      13.22164845 
S       9.99149071      15.09211873      18.43987663 
S      12.87655256      18.60259074      19.81585764 
S      19.42500778      21.02959469      15.65965518 
S      19.61174417      19.15469126      19.56702731 
S      15.49506266      21.79215661      13.18890269 
S      15.68679741      23.41608482      17.56525422 
S      17.24025282      21.79955064      21.69549455 
S      17.58020183      11.77455644      18.81278479 
S      16.13876576      11.39653633      11.56151417 
S       8.57472735      17.56119828      14.69362955 
S      15.92108456       8.87734800      15.51598979 
C      17.18839671      24.24529993      16.90220025 
C      16.05507032      22.41171693      22.95974951 
C      15.13604627      23.57519051      13.44819230 
C      12.35957025      19.85400659      11.47812543 
C       8.20038008      19.22987224      15.36718839 
C      11.96549168      21.03916556      17.33075241 
C      13.14005033      19.54977069      21.36697757 
C       9.72104031      16.23618292      19.85404985 
C      12.36694823      13.55907211      21.68183112 
C      11.90566228      11.90673300      16.22018766 
C      10.80211769      14.31233964      12.73048368 
C      18.05301824      19.04928501       9.94750659 
C      15.47197206      14.75764165       8.73473608 
C      14.43239485      11.25255210      10.89379264 
C      20.07908699      11.03067746      15.69711493 
C      23.61531258      14.73835040      16.48936034 
C      21.04917634      19.82914904      18.65009566 
C      20.80551358      21.45983467      14.53121364 
C      23.19634747      16.84467823      11.28480402 
C      17.85178777      16.47161226      22.63685626 
C      22.14775958      14.57983947      20.30711192 
C      16.62712161      11.31709149      20.31119657 
C      19.98371963      13.57801055      11.98995440 
C      17.25626224       7.62672321      15.32977063 
H      11.85496510      11.39769887      15.25094207 
H      11.63593319      12.96129178      16.09491750 
H      11.22588940      11.42570179      16.93189141 
H      10.57055884      13.77913067      11.80133167 
H      10.68355435      15.39408467      12.58824867 
H      10.13476118      13.97415604      13.53225527 
H      12.40852467      12.48857717      21.91401381 
H      11.52221885      13.75230732      21.01289162 
H      12.24784621      14.13093212      22.60946934 
H       8.64058423      16.34805437      19.99843403 
H      10.18705404      17.21023779      19.67789260 
H      10.16810106      15.77797300      20.74431102 
H       7.87433158      19.85778374      14.53010712 
H       9.08262933      19.67193461      15.84053401 
H       7.38536696      19.12761543      16.09197081 
H      11.63363643      22.04197860      17.03909224 
H      12.94766417      21.08738224      17.81419982 
H      11.24453201      20.58200680      18.01750514 
H      13.04751872      20.61755518      21.13547537 
H      14.13015904      19.35583776      21.79787933 
H      12.35824021      19.25633355      22.07743067 
H      17.74419705      15.38101403      22.62685276 
H      17.78707551      16.84645916      23.66445420 
H      18.81044579      16.75237001      22.18497223 
H      16.13349801      23.50446288      22.98996951 
H      16.35257606      21.99191231      23.92742578 
H      15.02782088      22.11848884      22.72655979 
H      20.86322215      20.89593476      18.48289583 
H      21.17813228      19.31965049      17.68885694 
H      21.93925550      19.69300576      19.27459661 
H      20.80136098      22.54630819      14.38704179 
H      20.71425231      20.94755592      13.56468223 
H      21.73795126      21.15408253      15.02102484 
H      22.52035206      13.54939235      20.32531912 
H      22.28032803      15.03865356      21.29383106 
H      22.68320941      15.16597201      19.55181914 
H      24.68988976      14.74565667      16.27239140 
H      23.06644415      14.29575535      15.65343182 
H      23.42075926      14.14357394      17.39016091 
H      19.89931990      10.63332550      14.69076930 
H      19.26343698      10.71971598      16.36248990 
H      21.04034016      10.66619156      16.07672269 
H      16.91586366      10.29937119      20.59646738 
H      15.54800189      11.37406752      20.12717927 
H      16.89983926      12.02213831      21.10460860 
H      14.33123180      11.96938142      10.07031356 
H      13.68453851      11.47734373      11.65983521 
H      14.29934359      10.23132547      10.51909260 
H      16.98042369       6.96135277      14.50372324 
H      17.30996743       7.05493418      16.26324753 
H      18.22295758       8.09421613      15.12381010 
H      13.25969851      20.03212156      10.87883162 
H      12.34533207      20.54508087      12.32935712 
H      11.46480547      19.98886460      10.86002379 
H      15.93820331      24.15584560      12.97856547 
H      15.06745299      23.81404135      14.51460115 
H      14.18152328      23.80047060      12.95830073 
H      18.71016579      19.61475191       9.27729855 
H      17.00558448      19.30263550       9.74780520 
H      18.20133552      17.97172773       9.80963339 
H      20.05370636      13.22128078      10.95609661 
H      19.17292376      13.06124520      12.51575786 
H      20.92975437      13.40720035      12.51562166 
H      23.21565813      17.18876674      10.24440060 
H      22.41413972      16.08830037      11.40629740 
H      24.17435915      16.42805737      11.55019729 
H      17.02987062      24.42817714      15.83270138 
H      18.07740334      23.62129648      17.03032874 
H      17.31296789      25.19767632      17.42994566 
H      16.20616458      15.13213162       8.01191103 
H      14.48298731      14.70670417       8.26514823 
H      15.77470199      13.76693798       9.08733954 
