156
Properties=species:S:1:pos:R:3 i=83 optimized=T E=-1636.3704386264 pbc="F F F" jobid=36_24-Ag-11_1-000009-PBE
Au      16.07049472      15.73154890      14.43565781 
Au      15.98067123      18.45729668      15.75671659 
Au      17.84467600      16.32432475      16.85134897 
Au      16.77034474      14.07127528      18.16024819 
Au      14.92567962      16.00481167      17.25211907 
Au      17.62574015      19.09878098      18.04000005 
Au      14.31068764      17.83334687      13.55751162 
Au      19.12129319      18.59756528      15.49550364 
Au      17.09398612      18.05345850      13.15628624 
Au      19.12190537      16.07462493      14.26809832 
Au      15.08915352      13.32362165      15.64422757 
Au      12.97652041      17.94900261      16.26631241 
Au      15.88541116      21.01221157      16.87238349 
Au      17.43266037      21.38256357      14.34451430 
Au      14.85448669      18.85076566      18.40494166 
Au      20.16028046      13.76766111      17.76319024 
Au      17.81110638      13.55356947      15.22543493 
Au      13.02556717      15.40979869      15.09269785 
Au      13.88414424      14.91130330      11.79548975 
Ag      13.85633596      13.48317972      18.73955246 
Au      17.37292549      15.55231410      11.30900462 
Ag      16.68504833      16.60830574      19.46778341 
Au      12.16904175      15.71333563      17.77426475 
Au      13.38378181      16.43311210      20.42521335 
Au      19.82589887      16.87234382      19.54022270 
Au      13.89337613      20.86411200      14.58296676 
Au      20.58799809      18.70180344      12.02507366 
Ag      16.09144774      13.33745293      12.93955917 
Au      20.62793644      16.48498211      16.63098607 
Au       9.28977220      16.38903122      16.63942614 
Au      10.57380726      17.84830437      13.52694965 
Au      22.91931097      17.37805388      14.51323403 
Au      16.92160404      19.37556076      21.80203396 
Au      16.49788788      22.43443183      19.77296861 
Ag      16.73895489      10.87192269      16.75419141 
Au      16.32092938      10.32141886      13.20961206 
S      16.49632113      17.08095162      21.91162028 
S      20.27700962      14.58535188      19.97116708 
S      22.88139678      18.24506997      12.32967731 
S      23.06411918      16.56507317      16.71977028 
S      18.39498281      19.43373158      11.62543931 
S      19.60839054      15.28759694      12.01580221 
S      15.30838625      15.91755168      10.20833196 
S      13.70096310      11.82418982      16.95879374 
S      13.77448845      14.20855832      21.07367974 
S      20.11985172      12.86298188      15.59115081 
S      12.39889642      18.02715029      12.06123431 
S      12.00531218      20.13101584      15.79468608 
S      12.42446690      13.86695445      13.31279869 
S       9.92638376      15.13842549      18.53561084 
S      12.94011664      18.68092280      19.87849970 
S      19.42139223      21.01076889      15.54037212 
S      19.51692701      19.21000092      19.55608974 
S      15.47801115      21.80892702      13.09792497 
S      15.71000545      23.28111551      17.72397042 
S      17.35879247      21.69100369      21.82361700 
S      17.48688884      11.86527894      18.84515048 
S      16.27736988      11.52981508      11.19555969 
S       8.56781084      17.56280501      14.73649416 
S      16.19257646       9.09248825      15.19381401 
C      17.16137666      24.17508757      17.03467238 
C      16.21587795      22.37906398      23.08822304 
C      15.16920824      23.60957008      13.29376104 
C      12.33307027      19.75274647      11.44279928 
C       8.20623484      19.24784935      15.37495207 
C      11.99744641      21.14105058      17.32608334 
C      13.28973952      19.66731873      21.38388772 
C       9.59241385      16.27743014      19.94003411 
C      12.13894812      13.56706389      21.61494020 
C      11.98375060      11.85173583      16.31414946 
C      10.72537174      14.26921869      12.74926401 
C      18.02911882      18.88359134       9.91387214 
C      15.40390082      14.72078700       8.81873416 
C      14.56857561      11.21522773      10.58427751 
C      20.16077854      11.04083851      15.80372517 
C      23.61081499      14.82395822      16.49290025 
C      20.96012011      19.88326180      18.64432675 
C      20.79914058      21.44877850      14.41179127 
C      23.17340645      16.76915117      11.27386844 
C      17.96013617      16.36937600      22.76338548 
C      22.07130709      14.63071543      20.36505938 
C      16.32757995      11.20851866      20.11100492 
C      19.89274830      13.47545564      12.02845541 
C      17.61627066       7.93021138      15.17556170 
H      11.97355288      11.37730567      15.32699976 
H      11.61201657      12.87927271      16.23557950 
H      11.36118811      11.27996995      17.01222277 
H      10.53204045      13.70888115      11.82738227 
H      10.60032632      15.34529843      12.57521617 
H      10.03454253      13.94343491      13.53607992 
H      12.25279978      12.49371865      21.80854394 
H      11.37412449      13.71635512      20.84512013 
H      11.84649072      14.07582552      22.54037300 
H       8.51022381      16.29611043      20.11171645 
H       9.96302697      17.28557576      19.73470285 
H      10.10632075      15.88005605      20.82357512 
H       7.89406022      19.86260289      14.52292625 
H       9.08906906      19.69033820      15.84688523 
H       7.38386309      19.16787967      16.09418575 
H      11.69100758      22.15833816      17.05749030 
H      12.98859431      21.15490404      17.79298183 
H      11.27233078      20.69516630      18.01601895 
H      13.24226262      20.72559408      21.09989537 
H      14.28440645      19.44116105      21.79048992 
H      12.51445903      19.44225349      22.12520146 
H      17.86860275      15.27822953      22.71169417 
H      17.95065607      16.69368110      23.80958267 
H      18.89306377      16.67817375      22.27800056 
H      16.31040649      23.47070654      23.07115966 
H      16.53140506      21.99491871      24.06501378 
H      15.17870482      22.09187693      22.89455682 
H      20.76295307      20.94406535      18.45327902 
H      21.10997949      19.35710754      17.69519578 
H      21.84205732      19.77190946      19.28511000 
H      20.81641619      22.53937818      14.30398900 
H      20.68594796      20.97032741      13.43093951 
H      21.72904057      21.10491179      14.88037936 
H      22.43772049      13.59821362      20.39384797 
H      22.18671152      15.09153538      21.35308026 
H      22.62766635      15.21017080      19.62130685 
H      24.67150228      14.83358282      16.21757789 
H      23.02187429      14.31642447      15.72365305 
H      23.47664812      14.30245272      17.44814824 
H      19.90025136      10.59164014      14.83785847 
H      19.45156282      10.70794464      16.57100535 
H      21.18067637      10.75499760      16.08624649 
H      16.65532452      10.19210750      20.35988206 
H      15.29596917      11.18351806      19.74218850 
H      16.38220634      11.84534534      21.00060895 
H      14.39575438      11.86736564       9.71989296 
H      13.82094385      11.43488754      11.35210296 
H      14.49123284      10.16770277      10.27348606 
H      17.46262332       7.20090175      14.37216562 
H      17.63263666       7.41192374      16.14159412 
H      18.56725652       8.44853090      15.02350210 
H      13.22308189      19.91418927      10.82395146 
H      12.32835418      20.47197626      12.27063951 
H      11.42816181      19.86229328      10.83457066 
H      15.97858456      24.14895970      12.78869590 
H      15.12734618      23.89324615      14.34974661 
H      14.21246275      23.84130701      12.81140592 
H      18.66494191      19.45598169       9.22908817 
H      16.97331317      19.10148052       9.71653401 
H      18.20838541      17.80859083       9.79428197 
H      19.91740462      13.12994885      10.98897301 
H      19.10396978      12.95294223      12.58157538 
H      20.85881556      13.29433387      12.51296228 
H      23.12885547      17.09737979      10.22908900 
H      22.41709929      15.99855664      11.45309409 
H      24.17473546      16.38591278      11.49854062 
H      16.93739509      24.42681380      15.99134892 
H      18.06349500      23.55754699      17.07013560 
H      17.30447312      25.09191846      17.61766899 
H      16.11649359      15.11595602       8.08540512 
H      14.40923754      14.64548770       8.36501009 
H      15.73980298      13.73931369       9.16913223 
