156
Properties=species:S:1:pos:R:3 i=98 optimized=T E=-1662.8346647689 pbc="F F F" jobid=36_24-Ag-30_6-000006-PBE
Au      16.04533055      15.77338795      14.34835966 
Ag      15.94146174      18.42066255      15.79435425 
Au      17.80174207      16.29196902      16.76429600 
Ag      16.72719562      13.90172633      18.04224757 
Au      14.90720512      15.93357395      17.18468832 
Ag      17.61728887      19.08929875      18.17080069 
Ag      14.21042553      17.79043683      13.51485738 
Au      19.00734299      18.55704212      15.59258899 
Au      17.01512003      18.08063737      13.16150441 
Ag      19.13985266      16.16813263      14.15870256 
Au      15.10385889      13.31147187      15.58325221 
Au      12.99891867      17.89520949      16.31732121 
Ag      15.87736339      21.00964465      16.90435971 
Au      17.37201943      21.27569171      14.38894425 
Au      14.87148343      18.88656655      18.42862203 
Au      20.06225912      13.78532679      17.75109944 
Au      17.84781691      13.66795304      15.16220958 
Au      13.03499301      15.41439121      15.02186626 
Au      13.95881486      14.99988861      11.70326841 
Au      13.77830565      13.13609863      18.75897058 
Ag      17.38542017      15.59258077      11.48812750 
Au      16.67209197      16.47228297      19.31973246 
Au      12.17780171      15.55431280      17.72182246 
Ag      13.63018478      16.35801888      20.18530518 
Au      19.82383226      16.90232028      19.52837513 
Au      13.85739985      20.72125832      14.60669303 
Au      20.49245699      18.72864020      12.16350573 
Au      16.11663663      13.31891980      12.94333047 
Ag      20.59245184      16.46637586      16.66257283 
Ag       9.48492365      16.36702759      16.63849180 
Au      10.50462040      17.89841738      13.46628403 
Au      22.82600188      17.36397297      14.70661890 
Au      16.91020759      19.40014097      21.46787791 
Au      16.51504008      22.49532005      19.49047331 
Au      16.83605004      10.38769846      17.08482626 
Ag      16.22115881      10.37098813      13.47425024 
S      16.42237415      17.11555536      21.66405561 
S      20.12192107      14.58778618      19.96548474 
S      22.77946664      18.32324767      12.55833178 
S      23.08665327      16.48787306      16.87098490 
S      18.32504699      19.45937131      11.63227868 
S      19.75646651      15.31376603      11.91305030 
S      15.39594192      15.96517544      10.11347222 
S      13.67175427      11.79267262      16.81820174 
S      13.89736767      14.06246019      20.92736129 
S      20.13896555      12.97773493      15.54475014 
S      12.28929984      18.13152095      11.96407719 
S      11.96719309      20.04588427      15.84616666 
S      12.44867157      13.95444372      13.18029704 
S       9.99050843      15.07532693      18.63629928 
S      12.89493907      18.64062347      19.86033147 
S      19.32959641      20.98654946      15.65131250 
S      19.71389263      19.24929305      19.53285584 
S      15.42794848      21.67526350      13.11857296 
S      15.69596757      23.44682805      17.50564450 
S      17.41863242      21.69702239      21.50591253 
S      17.59808752      11.70518572      18.86092675 
S      16.21494441      11.51958968      11.33337148 
S       8.56706801      17.54933210      14.75928664 
S      16.08348999       8.94128638      15.39262328 
C      17.17043985      24.29746196      16.80719285 
C      16.32388053      22.39366285      22.80802351 
C      15.09578263      23.47060456      13.33013683 
C      12.21058199      19.88008596      11.41129439 
C       8.18174420      19.21173892      15.44646308 
C      12.00650230      21.09488523      17.35062798 
C      13.20669483      19.57072321      21.41248338 
C       9.73935522      16.29504080      19.99230613 
C      12.26770945      13.58362512      21.62903922 
C      11.94962047      11.96039181      16.20888051 
C      10.76335508      14.37568802      12.59462691 
C      18.04305295      18.84006981       9.92684001 
C      15.59992757      14.67528971       8.82002571 
C      14.48349304      11.30816133      10.74479760 
C      20.16719073      11.14662702      15.65672385 
C      23.62655536      14.75528823      16.56676377 
C      21.15578152      19.81297309      18.54736208 
C      20.72979865      21.44786572      14.55967173 
C      23.16862271      16.91314281      11.44784557 
C      17.81283617      16.39304756      22.61669190 
C      21.90064393      14.52253347      20.42299848 
C      16.60170866      11.16357073      20.30625247 
C      20.03401747      13.49729172      11.93668609 
C      17.42888437       7.70614165      15.16919651 
H      11.90712868      11.52229866      15.20549350 
H      11.64403114      13.01198292      16.16715374 
H      11.29923052      11.40333079      16.89276554 
H      10.60146353      13.86355530      11.63920343 
H      10.63524791      15.45880224      12.47160686 
H      10.05182431      14.00385282      13.34149339 
H      12.28558995      12.51190158      21.85794011 
H      11.45667685      13.79377031      20.92240507 
H      12.11866819      14.15352399      22.55354644 
H       8.66027440      16.39924750      20.15369040 
H      10.18175584      17.26644817      19.75258253 
H      10.21106692      15.90532699      20.90234388 
H       7.80636570      19.83922516      14.63008600 
H       9.06992948      19.67606373      15.88672207 
H       7.39962891      19.09259090      16.20449534 
H      11.72952366      22.11329591      17.05652723 
H      12.99936109      21.08668117      17.81517882 
H      11.27605652      20.68848783      18.05913693 
H      13.12709309      20.64148250      21.19032047 
H      14.20326417      19.35766954      21.81845013 
H      12.43759086      19.28665500      22.14022643 
H      17.69330884      15.30376087      22.60047224 
H      17.74808906      16.76398682      23.64569484 
H      18.77634102      16.66645074      22.17068959 
H      16.45448630      23.48189865      22.80732606 
H      16.64569231      21.98289229      23.77182424 
H      15.27406847      22.14559302      22.62901721 
H      21.06597325      20.90049737      18.44309908 
H      21.16739215      19.35152847      17.55333741 
H      22.07400443      19.56347963      19.08963430 
H      20.72848408      22.53744430      14.44238815 
H      20.65453275      20.95679442      13.58096266 
H      21.65184680      21.12684478      15.05930760 
H      22.20080785      13.46961287      20.46985195 
H      22.00944987      14.98316013      21.41177973 
H      22.51490769      15.06209868      19.69469444 
H      24.66138128      14.76536336      16.20754051 
H      22.97968259      14.25074756      15.84287947 
H      23.57408042      14.22053042      17.52284284 
H      20.06638210      10.75863017      14.63580389 
H      19.34448229      10.77090924      16.27961072 
H      21.13379003      10.84534673      16.07619276 
H      16.88371716      10.13680947      20.56301920 
H      15.52831937      11.22295366      20.09364334 
H      16.84148859      11.83488002      21.13899117 
H      14.25978998      12.09952528      10.01950020 
H      13.76683097      11.36890335      11.56854064 
H      14.41414398      10.32771071      10.25926863 
H      17.16466950       7.07162803      14.31529048 
H      17.48647987       7.09327829      16.07584440 
H      18.39556516       8.18390916      14.98728623 
H      13.09654264      20.06845687      10.79392962 
H      12.20998156      20.56996322      12.26322209 
H      11.30420520      20.01832141      10.81161851 
H      15.89901183      24.02311470      12.82942776 
H      15.05193304      23.74078421      14.39029055 
H      14.13660677      23.69436318      12.84897299 
H      18.65954239      19.43883405       9.24679437 
H      16.98155659      18.97776022       9.69281393 
H      18.30313814      17.77941642       9.83745249 
H      20.05564592      13.13753815      10.90182936 
H      19.23944692      12.98309364      12.48874508 
H      20.99711573      13.29940876      12.42016308 
H      23.16413139      17.29198635      10.41936466 
H      22.42499396      16.11561940      11.55406417 
H      24.16959413      16.54923599      11.70378092 
H      16.91142519      24.63392407      15.79608726 
H      18.03194962      23.62507705      16.75053940 
H      17.40827490      25.16519522      17.43201557 
H      16.34860582      15.03995727       8.10649307 
H      14.64344866      14.53290772       8.30478564 
H      15.94224290      13.72814276       9.25235917 
