156
Properties=species:S:1:pos:R:3 i=100 optimized=T E=-1730.8065270557 pbc="F F F" jobid=36_24-Ag-80_6-000004-PBE
Ag      16.00447961      15.75628265      14.35029792 
Ag      15.94151640      18.43797204      15.77359147 
Ag      17.80428913      16.30473670      16.70411328 
Au      16.73973001      14.01699064      17.99095699 
Au      14.90993068      15.98132326      17.16224752 
Ag      17.64471741      19.01168007      18.04433621 
Au      14.29069224      17.84440578      13.53964502 
Au      19.05318593      18.54236923      15.47012252 
Ag      17.04331756      18.16026941      13.17454223 
Ag      19.07630328      16.14202956      14.08902313 
Ag      15.07972557      13.32281043      15.60986679 
Ag      12.96537304      17.97788978      16.27046427 
Ag      15.93242121      20.99039612      16.95153235 
Ag      17.22836347      21.06864957      14.27201594 
Ag      14.88977879      18.78521443      18.41212743 
Ag      19.86374515      13.86964598      17.72454198 
Ag      17.80557055      13.66792050      15.13390883 
Au      13.03862059      15.43285950      15.12563926 
Au      13.90269644      15.03517835      11.82917579 
Ag      13.89740199      13.36137349      18.74810027 
Ag      17.27598763      15.65400065      11.50506278 
Ag      16.61722844      16.49628560      19.35093936 
Ag      12.21205580      15.64913676      17.82713622 
Ag      13.64580359      16.36239746      20.31017195 
Ag      19.61451755      16.74458585      19.33835124 
Ag      13.94629550      20.60222843      14.71266440 
Ag      20.70742639      18.36309349      12.43981158 
Ag      16.04354427      13.31499738      12.94441573 
Ag      20.61337065      16.45839769      16.52332492 
Ag       9.48372614      16.38621808      16.83892462 
Au      10.51758215      17.88310277      13.72994952 
Ag      22.95228911      17.14804795      14.84331831 
Ag      17.02929538      19.73749950      21.24798371 
Ag      16.44840370      22.64526853      19.40316231 
Ag      16.46757365      10.55380836      16.57944103 
Ag      16.19649939      10.31379312      13.14944068 
S      16.44269055      17.43234930      21.62073490 
S      20.02322172      14.47051266      20.05750496 
S      23.08086422      17.96005494      12.60713873 
S      23.01893893      16.35013428      17.10778177 
S      18.64236737      19.42620090      11.79872029 
S      19.64908353      15.31173351      11.82715867 
S      15.25689945      16.09514854      10.22002054 
S      13.75533216      11.72362352      16.97302097 
S      13.95854301      14.09489502      21.05404465 
S      20.17794908      13.04334025      15.47309444 
S      12.26292060      18.10857386      12.17872263 
S      11.92440889      20.20225785      15.99841084 
S      12.43940367      13.91950860      13.30821043 
S      10.01685133      15.06366525      18.77546296 
S      12.89144665      18.60672415      19.85774231 
S      19.27775611      20.96768380      15.55855477 
S      19.56225450      19.14191624      19.61126248 
S      15.28386199      21.68713475      12.99715938 
S      15.65711748      23.42930112      17.27752107 
S      17.36402565      22.10475595      21.53297917 
S      17.52638703      11.75210574      18.40035725 
S      16.21444529      11.62481137      11.13761933 
S       8.55611535      17.60108248      14.99316138 
S      16.01382578       8.80202759      14.98226513 
C      17.16386717      24.22063036      16.56978965 
C      16.09589678      22.64759114      22.75437942 
C      14.99116789      23.46561938      13.36841607 
C      12.14215052      19.85242085      11.62090051 
C       8.23880258      19.27200475      15.69357021 
C      12.07583401      21.24494915      17.50226710 
C      13.18405197      19.55185884      21.40980726 
C       9.73477575      16.23592483      20.16934875 
C      12.31040361      13.54827765      21.66428320 
C      12.03662760      11.64561797      16.32965332 
C      10.74063999      14.30776989      12.73128187 
C      18.37437598      19.00714899      10.02920084 
C      15.44173676      14.87185441       8.85894422 
C      14.49706040      11.38807017      10.51004072 
C      20.25710431      11.21052366      15.63794683 
C      23.53335387      14.59362483      16.89427979 
C      21.01994735      19.85398456      18.74771840 
C      20.64056775      21.47753491      14.43407096 
C      23.33801459      16.43593008      11.60663705 
C      17.77584244      16.71981846      22.66613331 
C      21.81823117      14.56474626      20.45476850 
C      16.74698097      11.18018318      19.96056246 
C      19.90793577      13.49249082      11.83044372 
C      17.53720762       7.76843133      14.90826855 
H      12.03909299      11.03281898      15.42136545 
H      11.66675194      12.64879105      16.09147773 
H      11.39967630      11.18155955      17.09053988 
H      10.58569964      13.80744918      11.76861856 
H      10.58833248      15.38933763      12.62840044 
H      10.04248505      13.90617843      13.47531730 
H      12.35703838      12.47069804      21.86005092 
H      11.52449071      13.74880231      20.92687281 
H      12.09028173      14.07795944      22.59806363 
H       8.65758298      16.40817978      20.26839897 
H      10.25716538      17.18557911      20.01535515 
H      10.11344361      15.76771216      21.08599042 
H       7.86730214      19.91362356      14.88662606 
H       9.15393197      19.70266387      16.11481515 
H       7.46866924      19.17235830      16.46631816 
H      11.90578720      22.28876894      17.21623295 
H      13.06623491      21.14513695      17.96232285 
H      11.31767088      20.92240158      18.22419768 
H      13.17334481      20.62058194      21.16517369 
H      14.14316861      19.28801790      21.86851246 
H      12.36874417      19.32882531      22.10761677 
H      17.60864169      15.63997643      22.74496848 
H      17.71415262      17.17811729      23.65941207 
H      18.76429924      16.90388247      22.23068899 
H      16.06919483      23.74307431      22.76587842 
H      16.39803602      22.28241685      23.74261810 
H      15.10173533      22.26055138      22.51391866 
H      20.94264884      20.94563576      18.80284331 
H      21.03949761      19.54623896      17.69635066 
H      21.92945557      19.51741402      19.25645836 
H      20.67114641      22.57377992      14.43164113 
H      20.48066241      21.11028274      13.41473141 
H      21.58439137      21.08462986      14.82867811 
H      22.22823911      13.54840831      20.46390325 
H      21.92851717      15.00999056      21.45037634 
H      22.35787229      15.17731198      19.72305893 
H      24.58716706      14.57229675      16.59584307 
H      22.91907085      14.07833829      16.14897371 
H      23.41915176      14.08594711      17.85973204 
H      20.06459150      10.76975969      14.65263622 
H      19.52021629      10.83790495      16.35776926 
H      21.26532361      10.93687418      15.96961801 
H      17.04418132      10.13671954      20.11677206 
H      15.65490624      11.25540754      19.91270174 
H      17.12464535      11.80153946      20.78003085 
H      14.32996155      12.09642540       9.69013776 
H      13.75159268      11.56847132      11.29032023 
H      14.39997724      10.36429409      10.13236737 
H      17.46394762       7.10158887      14.04170180 
H      17.58530874       7.16818332      15.82405988 
H      18.44248519       8.37630551      14.82584081 
H      13.03432658      20.07366224      11.02465523 
H      12.09097880      20.54348252      12.46938806 
H      11.24202627      19.94489818      11.00263751 
H      15.78831313      24.05886195      12.90626810 
H      14.96580001      23.64919360      14.44891734 
H      14.02680242      23.75068393      12.93175196 
H      19.12807592      19.53195988       9.43140118 
H      17.37323411      19.35000054       9.74509151 
H      18.45263612      17.92728996       9.85955224 
H      19.84332502      13.13241634      10.79785975 
H      19.15618493      12.98795607      12.44843001 
H      20.90194942      13.28658631      12.24216462 
H      23.33491156      16.72408086      10.54912407 
H      22.54260746      15.70415375      11.78237290 
H      24.31219197      16.00601870      11.86287103 
H      16.96879021      24.44440754      15.51407442 
H      18.03661803      23.56396190      16.63869425 
H      17.35497923      25.15426567      17.11003233 
H      16.15007894      15.29146731       8.13468679 
H      14.46766561      14.72974357       8.37781610 
H      15.82397581      13.91505978       9.23243419 
