156
Properties=species:S:1:pos:R:3 i=118 optimized=T E=-1742.1283241428 pbc="F F F" jobid=36_24-Ag-88_9-000010-PBE
Ag      16.08760353      15.75460096      14.45098011 
Ag      16.00738232      18.39647105      15.80373425 
Ag      17.85034829      16.22826385      16.77791254 
Ag      16.69764482      13.94753994      18.09993086 
Ag      14.89977718      15.96319592      17.17105094 
Ag      17.66671254      19.01817011      18.07730209 
Ag      14.32150535      17.79148932      13.60515575 
Ag      19.06375359      18.49352535      15.48626312 
Ag      17.11051719      18.08984621      13.21604229 
Ag      19.07261604      16.02785088      14.17658889 
Ag      15.05011246      13.32878250      15.63435519 
Ag      12.94922456      17.94182767      16.29182381 
Ag      15.98428929      20.98388922      16.92044466 
Ag      17.30510189      20.99678263      14.28037876 
Ag      14.90324890      18.82203299      18.39837611 
Au      20.08094002      13.76424251      17.70695673 
Ag      17.78550439      13.55199332      15.27014329 
Au      13.04570529      15.45606736      15.07877409 
Ag      14.08363824      15.26900711      11.86502355 
Au      13.79547944      13.18730440      18.73090181 
Ag      17.34359268      15.66748026      11.48984958 
Au      16.62670160      16.48832061      19.31921453 
Ag      12.17081454      15.55838076      17.75527826 
Ag      13.66658778      16.40451760      20.17234741 
Ag      19.61746435      16.75756664      19.28360407 
Ag      14.00677693      20.55839374      14.68497343 
Ag      20.77840428      18.31783231      12.35277278 
Ag      16.09876606      13.37819224      12.98082685 
Ag      20.65022890      16.38686015      16.51582017 
Ag       9.39611271      16.30236610      16.98002081 
Ag      10.64671355      17.73759276      14.03168257 
Ag      22.93024089      17.25922585      14.77389024 
Ag      17.03759310      19.78619258      21.14471085 
Ag      16.38788527      22.68827707      19.33874227 
Ag      16.67122173      10.66156963      16.52718544 
Ag      16.16877729      10.43395440      13.03111319 
S      16.49122791      17.46490166      21.56542218 
S      20.11185138      14.46579827      19.95542896 
S      23.13938229      17.88263379      12.47993453 
S      23.06145866      16.57625046      17.07365375 
S      18.69721099      19.40647998      11.85732724 
S      19.68609637      15.23351749      11.90817268 
S      15.43108002      16.27612831      10.13448086 
S      13.55918161      11.75800063      16.87133523 
S      14.04357680      14.12413879      20.88883235 
S      20.18909022      12.91708365      15.51203846 
S      12.25780368      17.88206251      12.25066835 
S      11.95316308      20.17048986      15.90597637 
S      12.56595497      13.94539113      13.21737861 
S      10.03504469      15.00468884      18.89716904 
S      12.86708563      18.64865072      19.79713667 
S      19.31865260      20.95032939      15.62064669 
S      19.58741179      19.14949233      19.65043956 
S      15.37077563      21.53984799      12.94003069 
S      15.62671160      23.42459334      17.18401221 
S      17.27867206      22.16289885      21.48389069 
S      17.53946188      11.66364410      18.52998447 
S      16.16134236      11.80031134      11.06023890 
S       8.51597736      17.53561591      15.13988757 
S      16.00642772       8.99774446      14.91615965 
C      17.13325124      24.23058459      16.49179060 
C      15.97295746      22.64252779      22.69127095 
C      15.04921891      23.33109998      13.21934368 
C      12.08307375      19.55736839      11.51646581 
C       8.22429313      19.21247880      15.84221295 
C      12.02400436      21.23843058      17.39880914 
C      13.17429670      19.55967307      21.36715075 
C       9.81421625      16.21114438      20.27275119 
C      12.48025486      13.58773999      21.69441268 
C      11.82870798      11.93343307      16.28709553 
C      10.87016656      14.29582085      12.59771876 
C      18.36650991      19.09533600      10.07617960 
C      15.55710320      15.03605612       8.77983179 
C      14.41957825      11.63946842      10.47896858 
C      20.32801874      11.09404404      15.71650510 
C      23.72745456      14.86431078      16.90807476 
C      21.03639249      19.91523465      18.82166326 
C      20.68137936      21.48456729      14.50204973 
C      23.35650113      16.27043103      11.61727089 
C      17.88013864      16.78705023      22.55720020 
C      21.89191936      14.61311444      20.39294417 
C      16.52924113      10.90638384      19.86804018 
C      19.89890299      13.40799792      11.89431723 
C      17.43634475       7.84339382      14.79067019 
H      11.73621816      11.33906493      15.37076576 
H      11.59102700      12.98007481      16.06512978 
H      11.15512171      11.54390643      17.05764920 
H      10.69980512      13.65639684      11.72325559 
H      10.75559351      15.34762384      12.31433684 
H      10.15168917      14.04079328      13.38487089 
H      12.55105620      12.51626101      21.91389277 
H      11.61864357      13.77462030      21.04308029 
H      12.37552665      14.14774964      22.63090991 
H       8.74217359      16.38281647      20.41855422 
H      10.32376169      17.15889855      20.07066458 
H      10.23660223      15.76962880      21.18355296 
H       7.87623473      19.86082738      15.02985969 
H       9.14186642      19.63114569      16.26919726 
H       7.44589392      19.14237117      16.60947033 
H      11.84882798      22.27407237      17.08754800 
H      12.99730579      21.15910654      17.89693466 
H      11.24211582      20.91418988      18.09401545 
H      13.14682724      20.63375207      21.14861595 
H      14.14394677      19.29886257      21.80521896 
H      12.37349379      19.31024698      22.07280751 
H      17.77856250      15.69711319      22.59663463 
H      17.80363819      17.20528942      23.56765867 
H      18.84819760      17.05275612      22.11765493 
H      15.91330204      23.73636316      22.72273578 
H      16.26759375      22.26748902      23.67807961 
H      14.99531758      22.23134278      22.42461078 
H      21.01023949      20.99006383      19.03461643 
H      20.99048638      19.76258942      17.73759994 
H      21.95292636      19.47516223      19.22811520 
H      20.68723297      22.58029699      14.47286914 
H      20.54839682      21.09032081      13.48889999 
H      21.63028712      21.12491276      14.91623502 
H      22.34314685      13.61470947      20.38840339 
H      21.94780059      15.03514194      21.40355159 
H      22.41951887      15.27158091      19.69369970 
H      24.77877457      14.92418123      16.60601950 
H      23.16152794      14.27735389      16.17827205 
H      23.65700260      14.37259083      17.88544311 
H      20.15183155      10.64001000      14.73390471 
H      19.59513059      10.71607094      16.43803906 
H      21.34264167      10.85567780      16.05485937 
H      16.79792993       9.84740743      19.94992950 
H      15.45641478      11.00637152      19.66646796 
H      16.76949878      11.42293643      20.80426016 
H      14.25519732      12.37823694       9.68540054 
H      13.70465291      11.82145625      11.28750348 
H      14.27663179      10.63213481      10.07298261 
H      17.25775161       7.15994322      13.95282020 
H      17.49251124       7.26798149      15.72176986 
H      18.38027882       8.37300240      14.63412380 
H      12.89790772      19.69975057      10.79791829 
H      12.13956347      20.33589876      12.28534722 
H      11.11836956      19.61009904      10.99977826 
H      15.84508967      23.90868874      12.73554296 
H      15.01329388      23.56834391      14.28896862 
H      14.08629610      23.58291742      12.75994101 
H      19.12930307      19.61590440       9.48675059 
H      17.37562444      19.49967572       9.84114211 
H      18.38292718      18.02369981       9.84891280 
H      19.83366345      13.05812969      10.85824332 
H      19.12925713      12.91515920      12.49997968 
H      20.88485105      13.17260676      12.31013608 
H      23.37677957      16.46768733      10.53924550 
H      22.53336222      15.58388577      11.84166433 
H      24.31183711      15.83185745      11.92445602 
H      16.92976144      24.48744294      15.44527334 
H      18.00207617      23.56548088      16.53250811 
H      17.33458840      25.14674459      17.05735616 
H      16.28978407      15.39988502       8.04999906 
H      14.57786611      14.94331800       8.29658211 
H      15.88019267      14.06005631       9.15990518 
