156
Properties=species:S:1:pos:R:3 i=125 optimized=T E=-1662.8237089842 pbc="F F F" jobid=36_24-Ag-30_6-000008-PBE
Au      16.16024712      15.76062632      14.41903740 
Ag      16.08829317      18.42940545      15.78844495 
Au      17.95190095      16.27983904      16.83117129 
Au      16.89138364      13.97843348      18.07957160 
Ag      14.98961881      15.99034259      17.18714829 
Au      17.66942699      19.07530021      18.10550871 
Au      14.43332869      17.77151655      13.46786631 
Au      19.14593163      18.57668343      15.53598604 
Au      17.18811741      18.03151929      13.12168900 
Au      19.22430537      16.08785387      14.24375390 
Au      15.11390702      13.37492389      15.57204396 
Au      13.07965227      18.01159739      16.26538243 
Ag      16.02623179      21.02172519      16.96840110 
Au      17.42922554      21.35348041      14.38091668 
Ag      14.94916307      18.78722785      18.48483187 
Ag      19.96452313      13.79271436      17.68560025 
Au      17.85638402      13.57842500      15.16646831 
Au      13.04557710      15.53327333      15.01200502 
Au      14.02244962      15.04054063      11.69168335 
Ag      13.91825880      13.43850448      18.55716994 
Au      17.54082563      15.57403971      11.22560396 
Au      16.82089551      16.46329821      19.38074273 
Au      12.19183187      15.74643477      17.67457833 
Au      13.41232243      16.41126867      20.29100974 
Au      19.95308674      16.79087379      19.51743343 
Ag      14.20491033      20.54514843      14.66559720 
Au      20.75418405      18.71927992      12.15583426 
Ag      16.16334113      13.41505269      12.87175836 
Au      20.74284997      16.47026888      16.60475353 
Au       9.30425650      16.21950590      16.80199607 
Ag      10.81557547      17.78986188      14.02278880 
Au      23.06072818      17.26079290      14.59768572 
Ag      16.77733899      19.53134857      21.07729011 
Au      16.14021055      22.65010781      19.44878132 
Au      16.65843467      10.38592607      17.12515715 
Ag      16.09270534      10.44345299      13.59193942 
S      16.43890317      17.20009513      21.65170603 
S      20.33077972      14.50366682      19.97483272 
S      23.04563420      18.25359528      12.46967857 
S      23.16577851      16.32243629      16.75841607 
S      18.57335744      19.47371660      11.73008899 
S      19.75835061      15.32620275      11.98804877 
S      15.50033125      15.91338922      10.07846667 
S      13.62598854      11.85182664      16.73012847 
S      13.94087034      14.18969460      20.88160679 
S      20.11285763      12.76789621      15.49298158 
S      12.39665346      18.15307297      12.21374884 
S      12.10035110      20.19986957      15.86332079 
S      12.49101480      14.04073029      13.16911789 
S      10.07309374      14.91116006      18.61165172 
S      12.85883820      18.65774377      19.84612792 
S      19.39093050      20.99423865      15.63405691 
S      19.65596989      19.13080150      19.56969724 
S      15.55321562      21.75840806      13.02493344 
S      15.34649896      23.42035674      17.37246789 
S      17.09020728      21.90928738      21.45090542 
S      17.49489642      11.74085958      18.83777114 
S      16.20773689      11.43482188      11.39836979 
S       8.59422811      17.51314839      14.98720890 
S      15.84679097       8.95184784      15.46276634 
C      16.74974744      24.44652669      16.76529412 
C      15.91119397      22.37191809      22.78374936 
C      15.04990977      23.49669750      13.34720585 
C      12.23456888      19.92590057      11.76581512 
C       8.26340557      19.16363160      15.72939412 
C      12.12572125      21.21506503      17.39041372 
C      13.12422149      19.54614543      21.43365903 
C       9.72238266      15.97963019      20.06668751 
C      12.37371040      13.45511828      21.50065083 
C      11.90176979      12.07957621      16.14382369 
C      10.82821363      14.50229055      12.54169081 
C      18.25351075      19.00214143       9.98600268 
C      15.57453287      14.61039983       8.78485407 
C      14.48188825      11.22312094      10.78610549 
C      20.04655782      10.94675624      15.71211359 
C      23.56038027      14.55568037      16.43136616 
C      21.06617593      19.86828579      18.66087303 
C      20.77515460      21.51293264      14.54580271 
C      23.35412476      16.84173962      11.33357000 
C      17.92952376      16.74924055      22.62730114 
C      22.14793881      14.45144630      20.24373647 
C      16.48825057      11.34908255      20.32017933 
C      20.05489894      13.51670068      11.97459086 
C      17.15852146       7.68437482      15.21890454 
H      11.81859461      11.66519626      15.13336501 
H      11.62104886      13.13911485      16.13233905 
H      11.24751254      11.52907067      16.82990787 
H      10.62104098      13.88799127      11.65764403 
H      10.77400645      15.56457608      12.27942478 
H      10.10136516      14.27650748      13.33087537 
H      12.56019173      12.39283221      21.69947452 
H      11.56785383      13.54809444      20.76403172 
H      12.09094243      13.95524640      22.43388573 
H       8.65058103      15.91159253      20.28523518 
H      10.00754885      17.01824435      19.87691130 
H      10.30425167      15.59931798      20.91477702 
H       7.99448033      19.84081917      14.91023123 
H       9.14569283      19.55199255      16.24814000 
H       7.42066102      19.07623067      16.42334809 
H      11.88421219      22.24619336      17.10804768 
H      13.11139695      21.18518555      17.86904605 
H      11.37532902      20.82263424      18.08489694 
H      13.12494180      20.62029026      21.21153874 
H      14.07580234      19.26579381      21.89983804 
H      12.29548575      19.30998704      22.11069890 
H      17.94909743      15.65935900      22.73913854 
H      17.84127068      17.22333473      23.61168892 
H      18.85065623      17.07838977      22.13184019 
H      15.89526076      23.46407134      22.87205143 
H      16.28071264      21.93450495      23.71870246 
H      14.90146638      22.00360974      22.58170034 
H      20.84401817      20.93074173      18.51074761 
H      21.20498322      19.37752198      17.69118703 
H      21.96385945      19.75270740      19.27857399 
H      20.74231291      22.60456075      14.45299022 
H      20.70902188      21.04386326      13.55651692 
H      21.70848795      21.20869158      15.03433111 
H      22.46093223      13.40088171      20.23663247 
H      22.36798591      14.89269114      21.22273442 
H      22.68235648      15.00762701      19.46619578 
H      24.60859619      14.49583919      16.11756252 
H      22.90676777      14.13194491      15.66339460 
H      23.42141779      14.00231192      17.36785426 
H      19.89498952      10.49012501      14.72661678 
H      19.22929016      10.64787119      16.38101179 
H      21.00795462      10.62030805      16.12572220 
H      16.76008877      10.34088556      20.65266871 
H      15.41699224      11.39857784      20.09702972 
H      16.73598472      12.08266228      21.09531754 
H      14.36694030      11.81166664       9.86823158 
H      13.74573090      11.56554589      11.51967893 
H      14.31747776      10.16361097      10.56082042 
H      16.87764402       7.07626139      14.35114070 
H      17.19829650       7.05081296      16.11210333 
H      18.13811285       8.13882875      15.04641002 
H      13.10316032      20.21606330      11.16468858 
H      12.17494490      20.56548567      12.65404691 
H      11.31829476      20.03170451      11.17277043 
H      15.82670154      24.17031122      12.96865541 
H      14.88511921      23.67151439      14.41572686 
H      14.11507820      23.67384898      12.80194227 
H      18.92461866      19.58650565       9.34656609 
H      17.21037668      19.25521195       9.76445051 
H      18.41238050      17.92918698       9.82743528 
H      20.10884678      13.19303295      10.92928956 
H      19.25746927      12.97988913      12.49971258 
H      21.00825212      13.33133841      12.48191810 
H      23.31923157      17.23007898      10.30922623 
H      22.59871431      16.05984000      11.45953630 
H      24.35439160      16.44890846      11.54610813 
H      16.53000810      24.73406643      15.73039413 
H      17.69228093      23.89170387      16.78985994 
H      16.82666469      25.34497407      17.38710656 
H      16.31932409      14.91938413       8.04228128 
H      14.58741478      14.54383307       8.31374113 
H      15.85832838      13.64484659       9.21729202 
