156
Properties=species:S:1:pos:R:3 i=92 optimized=T E=-1647.7096842844 pbc="F F F" jobid=36_24-Ag-19_4-000003-PBE
Au      16.04983396      15.80911339      14.30696038 
Ag      15.94258890      18.51395148      15.70913768 
Au      17.77182763      16.30549985      16.77835776 
Au      16.63926557      14.01769806      18.02270648 
Au      14.89924509      16.02193827      17.11709781 
Ag      17.61515466      19.07238583      18.10483631 
Au      14.32379534      17.87235550      13.42815659 
Au      19.02094721      18.59232037      15.55090927 
Au      17.09258592      18.10755508      13.08926590 
Au      19.11658159      16.12919033      14.21843738 
Au      14.99890987      13.45140090      15.48917751 
Au      12.95764611      17.95810174      16.24444861 
Au      15.90879289      21.03107050      16.99037942 
Au      17.44092256      21.34610487      14.41724753 
Au      14.84293808      18.86825784      18.36461253 
Ag      19.90097085      13.78707252      17.65699509 
Ag      17.81112934      13.62544110      15.20809371 
Au      12.89994633      15.50525807      14.94670265 
Au      13.88904499      14.97875169      11.64497509 
Au      13.75091583      13.18137781      18.72302465 
Au      17.39655906      15.59325268      11.21152526 
Ag      16.61176386      16.56368826      19.37601187 
Au      12.20099070      15.62952741      17.70681672 
Au      13.45303719      16.35758344      20.33476529 
Au      19.76550865      16.80242183      19.53198795 
Au      13.93230967      20.84118110      14.61472621 
Au      20.64130474      18.74032729      12.07909352 
Au      16.11644704      13.40593695      12.91461072 
Au      20.56290929      16.47956472      16.64236173 
Au       9.27665676      16.18052331      16.73980782 
Ag      10.80405299      17.68515767      13.91357427 
Au      22.90102024      17.30999826      14.57738810 
Ag      17.01262703      19.60406695      21.42928042 
Au      16.57856124      22.67495733      19.61795925 
Au      16.80403815      10.45308081      17.05327616 
Au      16.28366534      10.22273186      13.45491578 
S      16.45752089      17.28946153      21.73771455 
S      20.06258093      14.49766877      19.96463815 
S      22.92126393      18.23815689      12.41848813 
S      22.99422592      16.45644239      16.77065344 
S      18.46988234      19.51863599      11.65194288 
S      19.62069055      15.36089753      11.97007989 
S      15.35150368      15.94820671      10.06908355 
S      13.66528452      11.86359733      16.76995077 
S      13.87922251      14.10803310      20.90239536 
S      20.15289342      12.85543627      15.45372924 
S      12.33899420      18.09442657      12.07240027 
S      12.00594221      20.15564720      15.79709333 
S      12.34100984      13.99995696      13.12478341 
S      10.02374210      14.95425112      18.61021582 
S      12.93133356      18.60391991      19.87544271 
S      19.39266799      20.98385865      15.67964288 
S      19.57118541      19.14648286      19.63258463 
S      15.51650140      21.78432188      13.12868925 
S      15.81723170      23.42763578      17.52013006 
S      17.42911855      21.97127552      21.67730178 
S      17.52739069      11.86330643      18.77490427 
S      16.31950053      11.46388595      11.45749439 
S       8.57423616      17.37321232      14.85563071 
S      16.13843184       8.91952871      15.39846709 
C      17.31218687      24.21376385      16.79460330 
C      16.21422088      22.56021483      22.92715489 
C      15.20425086      23.58258309      13.34234999 
C      12.09834443      19.85291626      11.60618141 
C       8.15176404      19.03866383      15.51202777 
C      11.98296283      21.13662103      17.34670350 
C      13.30102440      19.54242506      21.40896127 
C       9.70184628      16.10143816      20.01143241 
C      12.32045585      13.50673724      21.66533810 
C      11.93065620      11.97189437      16.18298149 
C      10.68217526      14.44464255      12.47551463 
C      18.13054804      18.99900248       9.92480809 
C      15.45938479      14.73151231       8.69673672 
C      14.62859849      11.21073532      10.77779128 
C      20.17630574      11.02710591      15.63951053 
C      23.48401540      14.70037026      16.53045745 
C      21.03416759      19.84171168      18.76806881 
C      20.81806925      21.38990998      14.59855516 
C      23.21220234      16.78831852      11.32717440 
C      17.85810115      16.58524857      22.69580305 
C      21.84873806      14.42111504      20.39454058 
C      16.58477014      11.34433419      20.26122984 
C      19.93743973      13.55523227      11.96288544 
C      17.53062075       7.72543233      15.27328105 
H      11.89497486      11.53787204      15.17740170 
H      11.58884553      13.01237206      16.14827292 
H      11.30542718      11.38915232      16.86867509 
H      10.48253686      13.80593823      11.60701763 
H      10.63126705      15.49905805      12.18240090 
H       9.94806863      14.24100077      13.26388358 
H      12.44296061      12.43826642      21.87826541 
H      11.46877125      13.65157819      20.99250139 
H      12.16520467      14.05484867      22.60155469 
H       8.63334720      16.05138335      20.25014464 
H       9.98771015      17.12725048      19.76318650 
H      10.29537938      15.76495130      20.87005517 
H       7.88985996      19.67017972      14.65498236 
H       8.99472764      19.48539516      16.04817852 
H       7.28616831      18.94686317      16.17686476 
H      11.67320638      22.15698950      17.09401074 
H      12.97415636      21.14415529      17.81475293 
H      11.25757256      20.67538106      18.02606063 
H      13.35129077      20.60488621      21.14278899 
H      14.24929494      19.22513355      21.85669487 
H      12.47950073      19.37312367      22.11487588 
H      17.71323852      15.50107243      22.76260411 
H      17.84783613      17.02163245      23.70068600 
H      18.81814603      16.78923265      22.20646948 
H      16.25013056      23.65487177      22.96031113 
H      16.51738934      22.15436957      23.89931488 
H      15.19772122      22.23143584      22.69401511 
H      20.87924965      20.92323499      18.68302551 
H      21.13977126      19.40444101      17.76929909 
H      21.92645957      19.63573352      19.36880552 
H      20.86010136      22.47996432      14.49180517 
H      20.72678545      20.91385077      13.61398606 
H      21.72464502      21.02769634      15.09789765 
H      22.14440424      13.36567323      20.41658029 
H      21.99050165      14.86229438      21.38779380 
H      22.45826267      14.96347879      19.66454464 
H      24.52479541      14.68143821      16.18852305 
H      22.83241380      14.19466485      15.81090062 
H      23.40453215      14.19807400      17.50203955 
H      20.02723934      10.58558542      14.64656461 
H      19.38080686      10.67719954      16.31024134 
H      21.15402111      10.72645194      16.03273343 
H      16.92975357      10.34503679      20.54897238 
H      15.50750484      11.33693142      20.05921773 
H      16.80596199      12.06329253      21.05820565 
H      14.48019728      11.92992945       9.96382067 
H      13.86390893      11.37148309      11.54302652 
H      14.56701857      10.18828797      10.38838350 
H      17.32028002       7.05279578      14.43403640 
H      17.56403178       7.15314805      16.20732713 
H      18.48553253       8.23371298      15.11347805 
H      12.89221441      20.13526785      10.90549073 
H      12.13838724      20.51024512      12.48327236 
H      11.12172665      19.93954382      11.11567684 
H      16.02169147      24.12917815      12.85832877 
H      15.14198355      23.85181453      14.40168552 
H      14.25625230      23.81963946      12.84540192 
H      18.80294286      19.55444069       9.26147331 
H      17.08837747      19.25703280       9.70440981 
H      18.27360408      17.91907914       9.79955631 
H      20.02614721      13.23879861      10.91748733 
H      19.12755178      13.00843036      12.45758797 
H      20.87568635      13.37744529      12.49965491 
H      23.19329898      17.14644348      10.29148208 
H      22.44104835      16.02481283      11.46988202 
H      24.20302819      16.38346703      11.56032923 
H      17.13251520      24.36574486      15.72358777 
H      18.19575753      23.58212545      16.92367811 
H      17.46078170      25.17974860      17.29055211 
H      16.19098087      15.10791953       7.97216855 
H      14.47270627      14.66336915       8.22458269 
H      15.77449034      13.74846129       9.05970377 
