156
Properties=species:S:1:pos:R:3 i=122 optimized=T E=-1742.1279429741 pbc="F F F" jobid=36_24-Ag-88_9-000005-PBE
Ag      16.07014392      15.78417108      14.39708452 
Ag      15.97816386      18.42628782      15.80302721 
Ag      17.82807203      16.30762619      16.75558182 
Ag      16.75260537      14.00665136      18.00275949 
Ag      14.90864025      16.00528851      17.15372183 
Ag      17.65593741      19.02846259      18.06587991 
Ag      14.30451580      17.84541573      13.54203183 
Ag      19.06991551      18.57749021      15.47749596 
Au      17.07794067      18.14486920      13.22666283 
Ag      19.12887041      16.13237231      14.15528962 
Ag      15.05941789      13.36589346      15.63263078 
Ag      12.98937575      18.01828211      16.25279601 
Ag      15.94416628      20.99741480      16.93292698 
Ag      17.26105107      21.07492233      14.29550002 
Ag      14.89559280      18.81517496      18.41957622 
Ag      19.82641817      13.86281731      17.78796231 
Ag      17.83175303      13.66247000      15.19925983 
Ag      13.04977772      15.49863727      14.99365279 
Ag      14.01249332      15.19893791      11.88921293 
Ag      13.88858140      13.47343196      18.65201298 
Ag      17.28805855      15.66479924      11.51788111 
Ag      16.62941995      16.51811287      19.33613285 
Au      12.16703723      15.71806740      17.64405147 
Ag      13.62156326      16.38193451      20.18933914 
Ag      19.61593455      16.76869833      19.34253683 
Ag      14.01885272      20.61664129      14.64722189 
Ag      20.73856283      18.33113482      12.49407531 
Au      16.08276888      13.34424660      13.02139037 
Ag      20.61745772      16.45032131      16.54992862 
Ag       9.33856398      16.31842450      16.92142236 
Ag      10.52067296      17.87196355      14.07171942 
Ag      22.95746487      17.20500773      14.91198839 
Ag      16.92007381      19.74547620      21.14025390 
Au      16.35564189      22.75919786      19.30412328 
Ag      16.48349577      10.50782588      16.54111231 
Ag      16.08648841      10.35121917      13.09537802 
S      16.41675387      17.44339656      21.62082835 
S      19.95401309      14.49613173      20.11254780 
S      23.11892096      17.97513616      12.66076492 
S      23.01794991      16.41804468      17.18380160 
S      18.66398047      19.38159797      11.84125236 
S      19.66854214      15.32751857      11.87419474 
S      15.34703103      16.24659914      10.17112497 
S      13.68255802      11.77928820      16.92979627 
S      14.09295669      14.14863722      20.98039830 
S      20.18540225      13.01140305      15.55457489 
S      12.16913116      17.95713358      12.32244037 
S      11.94446944      20.22311029      15.83154283 
S      12.44747262      13.91164350      13.20973906 
S      10.12585059      14.94357287      18.74723620 
S      12.85740560      18.64411024      19.80434790 
S      19.28291038      21.03960331      15.62187794 
S      19.59802828      19.17166571      19.59275166 
S      15.36892601      21.60517889      12.89371182 
S      15.55784007      23.46245628      17.20522785 
S      17.26621945      22.12780798      21.36379168 
S      17.48431207      11.67438876      18.39391315 
S      16.08753783      11.77560104      11.14551257 
S       8.40002623      17.67335749      15.19952703 
S      15.92227953       8.82235075      14.91181387 
C      17.02418334      24.30132766      16.47418761 
C      16.05645715      22.69385969      22.62872131 
C      15.00554159      23.39229323      13.14886437 
C      12.00947134      19.63823345      11.59476198 
C       8.18389345      19.31089092      16.01420259 
C      11.98695652      21.25986872      17.34835538 
C      13.13904030      19.56166857      21.37512600 
C       9.87981275      16.05223659      20.19631977 
C      12.50997687      13.49040832      21.65096289 
C      11.96131173      11.80538862      16.28772233 
C      10.76669401      14.34254666      12.59321242 
C      18.39851289      18.89671508      10.09039370 
C      15.48054158      15.00298700       8.82048652 
C      14.34048345      11.65447274      10.57758911 
C      20.26831892      11.18018449      15.73310949 
C      23.56741325      14.67102315      16.97307502 
C      21.04679142      19.86425702      18.70150300 
C      20.62408147      21.59719123      14.48861935 
C      23.38083041      16.42770382      11.69728922 
C      17.81683049      16.83480033      22.64549118 
C      21.74733432      14.54337738      20.52767197 
C      16.62511779      11.06747822      19.90165822 
C      19.97346933      13.51577144      11.89128480 
C      17.41052738       7.74403510      14.78012883 
H      11.92814568      11.20453956      15.37241840 
H      11.64510678      12.82893862      16.05859973 
H      11.30285671      11.37002708      17.04729390 
H      10.56253294      13.72595349      11.71013094 
H      10.69368398      15.40163466      12.32485266 
H      10.03763275      14.10938542      13.37754749 
H      12.64550974      12.42365784      21.86466060 
H      11.68845303      13.61084181      20.93510949 
H      12.27364768      14.01982741      22.58110814 
H       8.80980128      16.06609260      20.43300260 
H      10.23555943      17.06710569      19.99353210 
H      10.43885429      15.64266268      21.04638512 
H       7.83398822      20.01936705      15.25455842 
H       9.12610812      19.67396955      16.43757386 
H       7.42622897      19.21731597      16.79945474 
H      11.82416325      22.30354195      17.05811694 
H      12.94766639      21.16308176      17.86723791 
H      11.18861514      20.92458524      18.01934635 
H      13.17849855      20.63300283      21.14603040 
H      14.07130658      19.25370394      21.86087220 
H      12.29373336      19.36113184      22.04357033 
H      17.72619873      15.74658799      22.73378185 
H      17.74183643      17.29555501      23.63675381 
H      18.78263079      17.08251949      22.19121628 
H      16.05427641      23.78955463      22.64382235 
H      16.39386603      22.31546086      23.60074021 
H      15.04787266      22.32519718      22.42215348 
H      20.94880128      20.95545332      18.69639630 
H      21.08224710      19.50270854      17.66749062 
H      21.95730833      19.56924009      19.23394290 
H      20.58401909      22.69047353      14.42178502 
H      20.51584413      21.16412986      13.48836029 
H      21.58564390      21.29304488      14.91793959 
H      22.13137188      13.51710448      20.54225349 
H      21.85681406      14.98744831      21.52396665 
H      22.30947300      15.14204078      19.80175430 
H      24.61088345      14.66729453      16.63985882 
H      22.94098363      14.13164787      16.25507525 
H      23.49728927      14.17381771      17.94804745 
H      20.07120753      10.73068251      14.75290373 
H      19.53751529      10.81389700      16.46207327 
H      21.27989953      10.91387658      16.06067169 
H      16.88303561      10.01238646      20.04514245 
H      15.53897852      11.17854160      19.81097778 
H      16.98101556      11.65545821      20.75490908 
H      14.15971526      12.44502845       9.83937820 
H      13.63799351      11.77489418      11.40816434 
H      14.20486480      10.67399577      10.10725263 
H      17.28776303       7.08580214      13.91259031 
H      17.47080113       7.13599886      15.69004331 
H      18.33075135       8.32457171      14.67107478 
H      12.82398689      19.77582347      10.87507980 
H      12.07114048      20.41535621      12.36473894 
H      11.04436376      19.69838459      11.07943882 
H      15.80471312      23.98187318      12.68531186 
H      14.93230519      23.63970153      14.21344524 
H      14.05239075      23.62301303      12.65887085 
H      19.12778606      19.44311757       9.48106489 
H      17.38079065      19.18388795       9.80446535 
H      18.52658335      17.81735822       9.95128553 
H      20.01444757      13.16605518      10.85367337 
H      19.17493319      12.99164616      12.42861820 
H      20.92792276      13.32360845      12.39297762 
H      23.39547662      16.69335173      10.63396320 
H      22.57719109      15.70551464      11.87613025 
H      24.34789071      15.99664291      11.97727825 
H      16.76996692      24.57129453      15.44213342 
H      17.90027929      23.64439969      16.47026086 
H      17.23436104      25.20983711      17.04858001 
H      16.20267639      15.37451793       8.08390537 
H      14.50027829      14.89199055       8.34304732 
H      15.82242508      14.03285700       9.19967136 
