156
Properties=species:S:1:pos:R:3 i=124 optimized=T E=-1704.3901036395 pbc="F F F" jobid=36_24-Ag-61_1-000010-PBE
Ag      16.01534001      15.80146944      14.40761724 
Au      16.04855847      18.35389414      15.85786492 
Ag      17.90972737      16.25741267      16.76917121 
Au      16.71860043      14.00155386      18.06341738 
Au      14.94284318      15.98108518      17.22202886 
Au      17.74973637      19.01439237      18.01750971 
Ag      14.30081141      18.00568929      13.69912176 
Ag      19.14414966      18.54652601      15.44292848 
Ag      17.12781932      18.20985870      13.27065250 
Ag      19.13022642      16.08600640      14.14934134 
Ag      15.03649351      13.38874645      15.66881047 
Ag      13.12373651      18.03238143      16.50550153 
Ag      15.94415121      20.94574563      16.87677279 
Au      17.39320872      21.21959324      14.34258376 
Ag      15.05071363      18.83453911      18.62560113 
Ag      19.85316973      13.89855509      17.78684970 
Au      17.75559536      13.63743404      15.14786959 
Ag      12.97738563      15.62573065      15.09398590 
Au      13.89447689      15.00871358      11.96305949 
Au      13.79108270      13.24123031      18.85742822 
Ag      17.29319076      15.65493759      11.63099367 
Ag      16.69644890      16.46103393      19.42806788 
Ag      12.27463229      15.62824686      17.87269386 
Au      13.48498604      16.50441963      20.39595178 
Ag      19.70620482      16.83176392      19.33901755 
Au      13.79015400      20.79487582      14.75880869 
Ag      20.63830974      18.38832886      12.40162615 
Ag      16.02162157      13.29985131      12.98869695 
Ag      20.69265765      16.43424953      16.51250906 
Ag       9.63569447      16.15945147      16.61182508 
Au      10.76182505      17.71528994      13.47533614 
Ag      22.98482819      17.21046954      14.82874001 
Au      16.77159729      19.33727309      21.54905797 
Au      16.19402545      22.41857385      19.50826187 
Ag      16.60105879      10.69396533      16.59720230 
Au      16.05852777      10.30699032      13.09291667 
S      16.58634356      17.02573088      21.84817185 
S      20.14802857      14.57127931      20.08736148 
S      23.02864351      18.09423877      12.61666152 
S      23.11519106      16.33570044      17.06378659 
S      18.56273667      19.33822117      11.61891338 
S      19.68196235      15.32160941      11.84464901 
S      15.25255491      16.11131887      10.38258348 
S      13.60486583      11.83095318      16.98389564 
S      13.92279142      14.26201137      20.99475865 
S      20.09520590      13.03036366      15.53122639 
S      12.51503073      18.14912259      11.98170221 
S      11.93175826      20.17836176      16.06452621 
S      12.43870820      13.85702527      13.41022518 
S      10.01485677      14.96510348      18.66243031 
S      12.91132062      18.72744017      19.90080094 
S      19.44611597      21.03768692      15.46547299 
S      19.66540991      19.25984114      19.49225068 
S      15.36952945      21.59459173      13.18058573 
S      15.44699852      23.33300805      17.48137981 
S      17.09551168      21.66653589      21.53491326 
S      17.59334304      11.76817467      18.51479382 
S      16.08809676      11.60167035      11.13076086 
S       8.78381373      17.27459780      14.67105384 
S      15.91061081       8.99326328      15.02309143 
C      16.90984574      24.29280417      16.90477601 
C      15.97445575      22.31518253      22.83820926 
C      15.11451084      23.41191036      13.27412492 
C      12.25339605      19.90778934      11.51556561 
C       8.28845089      18.92497137      15.31695427 
C      12.00273257      21.27110680      17.53729877 
C      13.10245358      19.65971598      21.47220181 
C       9.58110508      16.21684785      19.94472595 
C      12.34849976      13.69867036      21.75733047 
C      11.85408652      11.90888951      16.44081892 
C      10.75460293      14.12208793      12.72342242 
C      18.34544889      18.64539723       9.92936085 
C      15.43494475      14.92633733       8.98845965 
C      14.36554674      11.43058061      10.50463917 
C      20.18498641      11.19777340      15.65861908 
C      23.59806237      14.57894202      16.78415352 
C      21.10235010      19.83967158      18.50815627 
C      20.71253547      21.54736261      14.23443186 
C      23.35459545      16.61375314      11.57110844 
C      18.15477488      16.57465211      22.69514514 
C      21.96075221      14.64630914      20.39289086 
C      16.72041407      11.13348959      19.99938635 
C      19.95716829      13.50426611      11.83646488 
C      17.32310924       7.81846422      14.92451672 
H      11.78066643      11.33254847      15.51136034 
H      11.54336728      12.94274961      16.25386531 
H      11.22413457      11.45874514      17.21524247 
H      10.65696383      13.54467553      11.79755848 
H      10.56587458      15.18563671      12.52999490 
H      10.03709933      13.75244219      13.46619224 
H      12.44971124      12.63053125      21.98200465 
H      11.50503341      13.85671126      21.07586346 
H      12.20155508      14.26004839      22.68692571 
H       8.49413866      16.35282691      19.95381803 
H      10.07772408      17.17542559      19.76469843 
H       9.90724304      15.83115157      20.91813161 
H       7.93019835      19.52629571      14.47375101 
H       9.12882420      19.43382749      15.80046916 
H       7.47147761      18.77514679      16.03156217 
H      11.79362478      22.29971032      17.22498526 
H      12.98054836      21.22087145      18.02893642 
H      11.23121444      20.92490490      18.23469637 
H      12.98802207      20.72359746      21.23025245 
H      14.09260518      19.48839273      21.91435449 
H      12.31449311      19.34993834      22.16721580 
H      18.25234230      15.48414950      22.65063741 
H      18.09014845      16.90556992      23.73742866 
H      19.02258866      17.03188945      22.20763963 
H      16.04504842      23.40888429      22.82696191 
H      16.32626410      21.93174039      23.80284274 
H      14.93812494      22.00817313      22.67201186 
H      20.95209309      20.89678743      18.26362810 
H      21.21555544      19.26491307      17.58102564 
H      21.99890616      19.71939518      19.12717035 
H      20.68075154      22.63778866      14.13188898 
H      20.54459715      21.07559121      13.25978886 
H      21.69051947      21.24253102      14.62553489 
H      22.35338820      13.62334486      20.41582077 
H      22.12743254      15.12108031      21.36684355 
H      22.47338261      15.22556861      19.61557494 
H      24.64690259      14.54820547      16.46939975 
H      22.96636779      14.09826304      16.03066240 
H      23.48787668      14.04108071      17.73364127 
H      19.89009251      10.76793307      14.69434400 
H      19.53151364      10.81686672      16.45114604 
H      21.22562113      10.93066621      15.87870068 
H      16.99650687      10.08133010      20.13329389 
H      15.63387247      11.22700061      19.88585074 
H      17.05181762      11.71808479      20.86497290 
H      14.24958677      12.11835408       9.65853566 
H      13.63268156      11.68449136      11.27671048 
H      14.21347442      10.40105946      10.16305068 
H      17.13655980       7.11867654      14.10211725 
H      17.36376129       7.26780171      15.87153990 
H      18.27243010       8.33553725      14.75963559 
H      13.12856579      20.22360801      10.93591090 
H      12.15562991      20.54725152      12.40043235 
H      11.35198516      19.97522694      10.89669556 
H      15.92662162      23.89687212      12.72076847 
H      15.10436243      23.75457059      14.31370834 
H      14.15342286      23.64028954      12.79882164 
H      19.01495394      19.18837363       9.25238552 
H      17.30470011      18.79988375       9.62412209 
H      18.57916332      17.57492613       9.89704340 
H      19.77826475      13.12570242      10.82427303 
H      19.28934201      13.00540981      12.54767075 
H      20.99600716      13.31434202      12.12882388 
H      23.33021348      16.93056018      10.52205541 
H      22.59737524      15.83875812      11.73061332 
H      24.35047191      16.22503373      11.80925461 
H      16.68684528      24.65722385      15.89480341 
H      17.81097904      23.67301600      16.86965113 
H      17.06318818      25.14566606      17.57460092 
H      16.15379759      15.35713611       8.28128626 
H      14.46306059      14.80906115       8.49604209 
H      15.80269586      13.95463000       9.33620277 
