156
Properties=species:S:1:pos:R:3 i=142 optimized=T E=-1704.365664434 pbc="F F F" jobid=36_24-Ag-61_1-000007-PBE
Ag      16.02128510      15.73686575      14.41358399 
Ag      15.92886273      18.36103282      15.78821505 
Ag      17.74782969      16.26962770      16.76110054 
Ag      16.61180403      13.98643149      18.04512728 
Ag      14.81887007      15.99130466      17.24455687 
Ag      17.66727129      18.99886718      18.04294832 
Au      14.29912073      17.77017853      13.52846996 
Ag      19.01902154      18.53321221      15.42971488 
Ag      17.06172177      18.11009133      13.18605834 
Ag      19.11405924      16.06995474      14.19539150 
Au      15.06391151      13.29231578      15.59872693 
Au      12.85040677      17.96317551      16.29629988 
Ag      15.95988800      20.99420847      16.89502561 
Au      17.28427816      21.20621345      14.29935418 
Au      14.93245581      18.85159939      18.40980864 
Ag      19.68780634      13.85866934      17.85505578 
Au      17.79611517      13.58681857      15.21201394 
Au      12.93504840      15.48416923      15.06984253 
Au      14.03489339      15.06405342      11.77539880 
Au      13.73350416      13.23599505      18.74522224 
Ag      17.39007273      15.57848702      11.56624478 
Ag      16.65350537      16.51164965      19.37548035 
Au      12.03388686      15.67328149      17.72870954 
Au      13.47373079      16.41469047      20.29055118 
Au      19.74519610      16.92330867      19.52374558 
Ag      14.00121944      20.48726489      14.69790512 
Ag      20.66936949      18.40659667      12.51103364 
Au      16.12218802      13.25664851      12.98170018 
Ag      20.53503656      16.45707686      16.66462529 
Ag       9.24905981      16.16344250      16.90936655 
Ag      10.68874918      17.66233157      14.01944415 
Ag      22.86813895      17.20778128      14.97277964 
Ag      16.83523235      19.54158852      21.12082202 
Au      16.38705144      22.65440075      19.32682600 
Ag      16.62688757      10.63925082      16.58183932 
Ag      16.18037200      10.30353694      13.09490763 
S      16.41761703      17.25598554      21.73624438 
S      19.93229448      14.64587890      20.13818551 
S      23.04972913      18.12103427      12.77917877 
S      22.97274698      16.30174909      17.19210598 
S      18.60024017      19.33326512      11.70243718 
S      19.76926356      15.29306474      11.92646223 
S      15.43477380      16.11207451      10.19962785 
S      13.53991457      11.85824915      16.84390558 
S      13.93289233      14.17923197      20.90456527 
S      20.11590696      13.02886181      15.60673246 
S      12.26111189      18.06198379      12.21372791 
S      11.91931051      20.18136328      15.94150529 
S      12.50958489      13.97015339      13.20910852 
S       9.99602631      14.93946646      18.86111136 
S      12.93659508      18.66098956      19.84166812 
S      19.27564951      21.01544937      15.54085153 
S      19.71609708      19.27805277      19.42058708 
S      15.36028679      21.59823288      12.99853204 
S      15.52708135      23.45022157      17.28960353 
S      17.35847651      21.89542776      21.31253535 
S      17.59114024      11.73630125      18.49446226 
S      16.20371380      11.69525700      11.11633152 
S       8.48896159      17.37447647      15.00422044 
S      15.95645460       8.92516214      15.01961875 
C      16.95358199      24.36197303      16.56758936 
C      16.27715848      22.52026487      22.66324665 
C      14.95174381      23.36933098      13.27742321 
C      12.04159029      19.83195822      11.77642370 
C       8.12476920      19.05157878      15.67335734 
C      12.03904166      21.20207846      17.46044616 
C      13.24622897      19.57227536      21.40559467 
C       9.74007762      16.15395679      20.22003493 
C      12.38739691      13.58310226      21.69856949 
C      11.82324699      12.06031994      16.23472487 
C      10.84620174      14.37087904      12.54067786 
C      18.47108900      18.69652387       9.98137677 
C      15.63994598      14.89706099       8.83533737 
C      14.46943924      11.56077673      10.51452642 
C      20.23044990      11.19654283      15.71429359 
C      23.46300156      14.55418093      16.87515545 
C      21.16076556      19.78373322      18.40928049 
C      20.60345350      21.57190626      14.39584410 
C      23.40928395      16.64819835      11.73357043 
C      17.88697992      16.78074325      22.73346687 
C      21.72582498      14.51900456      20.52304123 
C      16.76848824      11.05877467      19.99219276 
C      20.07436805      13.48100599      11.94098602 
C      17.37066890       7.74622278      14.96894654 
H      11.76899280      11.60351610      15.24025300 
H      11.55292065      13.12102232      16.17380047 
H      11.15857330      11.53636383      16.93085928 
H      10.69581322      13.76851446      11.63703654 
H      10.75285381      15.43524749      12.29738854 
H      10.10273716      14.09531688      13.29766097 
H      12.51262269      12.51613281      21.91715540 
H      11.52461547      13.72733265      21.03798862 
H      12.25196140      14.13834649      22.63380522 
H       8.70619659      16.05021188      20.56964155 
H       9.92155924      17.17959307      19.88705955 
H      10.43551429      15.92163660      21.03627525 
H       7.84171602      19.69482080      14.83209702 
H       8.99728481      19.48092418      16.17698868 
H       7.28387497      18.97819453      16.37137659 
H      11.82865518      22.24014933      17.17819500 
H      13.03932897      21.13416181      17.90401511 
H      11.29590947      20.84795006      18.18290006 
H      13.31172140      20.63873927      21.15898315 
H      14.17335830      19.24194694      21.88773345 
H      12.39481389      19.39670822      22.07357660 
H      17.86613379      15.69387237      22.87218164 
H      17.82441047      17.28074493      23.70628401 
H      18.81985890      17.05739634      22.22839754 
H      16.36540995      23.61184624      22.70310663 
H      16.63946621      22.08965037      23.60409499 
H      15.23062981      22.24133338      22.51180041 
H      21.08825005      20.86789997      18.26555556 
H      21.16012270      19.28751424      17.43127295 
H      22.07643576      19.53464055      18.95597838 
H      20.55590757      22.66338164      14.31199386 
H      20.49763510      21.11592394      13.40517039 
H      21.56336915      21.27762148      14.83659936 
H      21.98549127      13.45528143      20.57388424 
H      21.90816665      14.98828259      21.49661765 
H      22.32733201      15.01970070      19.75569430 
H      24.50950294      14.53371721      16.55193570 
H      22.82737169      14.08442481      16.11781459 
H      23.36320262      13.99645731      17.81432926 
H      19.99058163      10.77316071      14.73225288 
H      19.54845221      10.79612228      16.47240525 
H      21.26539371      10.94845845      15.97969848 
H      17.03963819      10.00271939      20.09817107 
H      15.67996597      11.16250786      19.91872443 
H      17.12991574      11.62231962      20.85998315 
H      14.22079915      12.46563859       9.94653675 
H      13.76214614      11.45703425      11.34189317 
H      14.41317292      10.68163642       9.86180698 
H      17.20110542       7.03496824      14.15263080 
H      17.39663259       7.20446757      15.92135011 
H      18.32605616       8.25578985      14.81579464 
H      12.90341228      20.15223505      11.18056705 
H      11.95828524      20.46507396      12.66721237 
H      11.12525934      19.91260388      11.17958951 
H      15.72880813      23.99092316      12.81871998 
H      14.86865458      23.59463729      14.34613287 
H      13.99022348      23.56561885      12.78801080 
H      19.18323989      19.25107124       9.35975905 
H      17.45042489      18.87549673       9.62567488 
H      18.69103858      17.62411435       9.92844595 
H      20.04576754      13.11542541      10.90859043 
H      19.31759216      12.96438707      12.54170680 
H      21.06348714      13.29915950      12.37550166 
H      23.44715796      16.97928108      10.68930743 
H      22.63212984      15.88371561      11.84068291 
H      24.38455326      16.24054564      12.02022567 
H      16.67822430      24.65501794      15.54745079 
H      17.85084554      23.73629360      16.53123576 
H      17.14173503      25.25836125      17.16822708 
H      16.38475068      15.30515455       8.14145716 
H      14.68246509      14.78071895       8.31532747 
H      15.98765542      13.92746445       9.21065123 
