156
Properties=species:S:1:pos:R:3 i=148 optimized=T E=-1689.2720925213 pbc="F F F" jobid=36_24-Ag-50_0-000005-PBE
Ag      15.94707242      15.81161144      14.38219236 
Ag      15.92299051      18.43538405      15.78384261 
Au      17.77226827      16.26994544      16.68343633 
Au      16.61449822      14.01777928      18.03212175 
Au      14.86367351      16.00784435      17.18775925 
Au      17.63681334      19.10969202      18.03093211 
Ag      14.22326287      17.94458151      13.57422598 
Ag      19.00327372      18.52563757      15.46123121 
Ag      17.03600075      18.13926197      13.19496154 
Ag      18.99336232      16.02566585      14.15477425 
Au      14.94650830      13.36858406      15.54797356 
Au      13.00677769      17.98169959      16.38965536 
Au      15.93822335      20.99684643      16.90710507 
Ag      17.41266849      21.06276442      14.30328397 
Ag      14.89585922      18.89851383      18.54801141 
Au      20.11296851      13.69254730      17.60483728 
Ag      17.73820009      13.51237836      15.26256939 
Ag      12.94014767      15.54976895      14.98436104 
Au      13.81767210      14.99967922      11.79907187 
Au      13.71891617      13.26490171      18.82358363 
Ag      17.21310218      15.64816081      11.52739203 
Ag      16.72521433      16.56772242      19.31726909 
Au      12.15758813      15.68075896      17.76731307 
Ag      13.56338241      16.47903637      20.25723719 
Au      19.76721824      16.71633609      19.47644336 
Au      13.91449309      20.80374747      14.58246294 
Ag      20.61881965      18.33014625      12.23038104 
Au      16.01935574      13.36166605      13.00635400 
Ag      20.55592046      16.38893978      16.55321803 
Ag       9.40277703      16.22787010      16.76330482 
Ag      10.66824463      17.74714133      13.78926419 
Au      22.91652341      17.27480868      14.70047047 
Au      16.76234243      19.51578332      21.49701490 
Ag      16.38410889      22.48538953      19.42031680 
Au      16.93450098      10.58139999      16.83033250 
Au      16.47043317      10.36772338      13.17218382 
S      16.34238901      17.22014292      21.69066499 
S      20.07215799      14.39980310      19.86057448 
S      22.99725323      17.97371836      12.46096371 
S      23.01927192      16.58288878      16.94581570 
S      18.53181679      19.39175942      11.68236563 
S      19.59924803      15.38308719      11.84847563 
S      15.19674710      16.10766199      10.23950081 
S      13.53095689      11.91620167      16.89572041 
S      13.93300490      14.19397572      20.98807701 
S      20.18195338      12.96410611      15.37560494 
S      12.28550043      18.07667885      12.04534658 
S      12.02273519      20.13483878      15.83210852 
S      12.27783695      13.92556733      13.22050306 
S      10.03451896      14.97886043      18.73576971 
S      12.82031534      18.74455004      19.88480911 
S      19.51209776      20.94626885      15.48024870 
S      19.60190892      19.06423447      19.48951170 
S      15.45077045      21.68623668      13.02434904 
S      15.70917685      23.40365402      17.28043191 
S      17.21239013      21.82166304      21.56288280 
S      17.50079373      11.84306023      18.72577058 
S      16.39006423      11.69357492      11.22266374 
S       8.55000521      17.44785195      14.90198890 
S      16.38416413       9.06326521      15.11299768 
C      17.28323094      24.13551620      16.66355562 
C      16.01869021      22.50578555      22.78428458 
C      15.24124233      23.49395224      13.28354482 
C      12.02131948      19.82485149      11.53563657 
C       8.20009017      19.11177318      15.61113173 
C      12.01152499      21.19410950      17.32931069 
C      13.04882088      19.64830451      21.47014194 
C       9.71373706      16.19849908      20.07886898 
C      12.35219332      13.67150974      21.76661870 
C      11.79402646      12.07185428      16.33247243 
C      10.62793668      14.35438568      12.53173018 
C      18.16550957      18.91246384       9.94508890 
C      15.41337098      14.93797287       8.83705051 
C      14.70764831      11.35992211      10.55582986 
C      20.35436350      11.13608175      15.45098449 
C      23.68613197      14.87355533      16.79390319 
C      21.05980059      19.66186895      18.55142217 
C      20.82981552      21.34173962      14.25856578 
C      23.29607154      16.41209314      11.53742996 
C      17.73938991      16.55720032      22.68416723 
C      21.82157538      14.35569176      20.42186789 
C      16.41778749      11.16920048      20.04619284 
C      19.94023129      13.57641001      11.79791762 
C      17.81761393       7.91795728      15.01596733 
H      11.72638944      11.62061872      15.33628351 
H      11.48484788      13.12183974      16.28288318 
H      11.16058390      11.52651296      17.04108391 
H      10.45878873      13.74664582      11.63556838 
H      10.55902787      15.41811306      12.27632567 
H       9.87569352      14.10848360      13.29069598 
H      12.41860073      12.60501097      22.01061245 
H      11.50606911      13.83878958      21.09050797 
H      12.21971669      14.25069187      22.68783141 
H       8.63026209      16.25948174      20.23153867 
H      10.11764615      17.18586576      19.83432394 
H      10.19381658      15.83789960      20.99655053 
H       7.87667529      19.76572762      14.79306434 
H       9.08718249      19.54185279      16.08688885 
H       7.38974675      19.01933456      16.34233200 
H      11.67313740      22.19183355      17.02789996 
H      13.01030572      21.25033606      17.77613610 
H      11.31570050      20.75248899      18.05110541 
H      12.88418962      20.71523911      21.27706764 
H      14.05841882      19.50305428      21.87479683 
H      12.30419824      19.28922366      22.18952646 
H      17.62172072      15.46801871      22.72279698 
H      17.68220585      16.97432842      23.69533386 
H      18.70255403      16.80538057      22.22353189 
H      16.11596967      23.59754108      22.77170057 
H      16.28631131      22.12641516      23.77688958 
H      14.98855148      22.22467714      22.54830481 
H      20.93737678      20.74188712      18.41241013 
H      21.13598560      19.17876356      17.57102201 
H      21.95491954      19.45257614      19.14722990 
H      20.97105630      22.42888868      14.25585812 
H      20.56477912      21.00515799      13.25044033 
H      21.75747635      20.85094421      14.57528401 
H      22.14862332      13.30968584      20.42579618 
H      21.85825934      14.75863574      21.44066421 
H      22.46399826      14.95124679      19.76574363 
H      24.73107056      14.92973951      16.46998854 
H      23.10231142      14.27511602      16.08780893 
H      23.63465127      14.40554387      17.78412798 
H      20.21941601      10.75826890      14.42985747 
H      19.59487349      10.69397685      16.10824720 
H      21.35958351      10.88709521      15.80833039 
H      16.75418031      10.15162888      20.27415368 
H      15.36595790      11.16744800      19.73721131 
H      16.53540209      11.81179916      20.92628853 
H      14.48599922      12.12548551       9.80308838 
H      13.95116653      11.40339639      11.34454021 
H      14.71350658      10.36835961      10.08938442 
H      17.63822225       7.23008170      14.18176627 
H      17.86088012       7.35633233      15.95610923 
H      18.75689364       8.45563771      14.85963962 
H      12.82475760      20.09756408      10.84185324 
H      12.04777064      20.50440046      12.39533263 
H      11.05360058      19.89852609      11.02716604 
H      16.07738298      24.00387804      12.79096918 
H      15.22467226      23.74061120      14.35124972 
H      14.29774747      23.80525274      12.82063813 
H      18.86960620      19.43531226       9.28811184 
H      17.14104289      19.22293655       9.71206357 
H      18.25830786      17.82970458       9.80284686 
H      19.94945067      13.25531166      10.75046087 
H      19.17384180      13.02020710      12.34910636 
H      20.91811690      13.39432064      12.25699940 
H      23.29491461      16.65882820      10.46924418 
H      22.51276815      15.67502926      11.74143683 
H      24.27702392      16.01579383      11.82037100 
H      17.16134751      24.37374394      15.60016936 
H      18.12366777      23.44371146      16.77744480 
H      17.47372078      25.05664939      17.22579775 
H      16.10647325      15.40108055       8.12439808 
H      14.44271422      14.78157645       8.35312312 
H      15.82601552      13.98012296       9.17129625 
