156
Properties=species:S:1:pos:R:3 i=122 optimized=T E=-1742.1343140846 pbc="F F F" jobid=36_24-Ag-88_9-000003-PBE
Ag      16.08098940      15.78935528      14.40005332 
Au      15.97247640      18.49597274      15.78904185 
Au      17.85908444      16.30664884      16.75763347 
Ag      16.79625355      14.02148375      18.00467334 
Ag      14.92997311      16.02682196      17.13756891 
Ag      17.65367928      19.05982406      18.01417304 
Au      14.32756288      17.87835019      13.56339321 
Ag      19.06096601      18.58130299      15.46354098 
Au      17.07398822      18.22417506      13.18917532 
Ag      19.08179453      16.10575502      14.16058554 
Ag      15.05187673      13.39878748      15.62533318 
Ag      12.97127780      18.00765539      16.25118700 
Ag      15.93939225      21.05470580      16.89361940 
Ag      17.33815904      21.14109618      14.29149877 
Ag      14.86491987      18.83075720      18.36812915 
Ag      19.88163977      13.86024103      17.74801554 
Ag      17.79853520      13.63779892      15.19426458 
Ag      13.03493934      15.51233992      15.02885381 
Ag      14.01329730      15.19824456      11.88081406 
Ag      13.93009098      13.46955664      18.68325903 
Ag      17.27233916      15.71823868      11.50030899 
Ag      16.67969496      16.55411290      19.31968482 
Ag      12.21666266      15.71958954      17.74318289 
Ag      13.67574584      16.43894432      20.23211560 
Ag      19.65100604      16.82650498      19.35213820 
Ag      13.99871314      20.68660113      14.62824785 
Ag      20.77420850      18.27058490      12.36257219 
Ag      16.06336518      13.38291397      12.96379962 
Ag      20.63376258      16.46020065      16.54568540 
Ag       9.40972987      16.23466594      16.92047191 
Ag      10.63165767      17.76630734      14.09205335 
Ag      22.94160450      17.19540453      14.77887267 
Ag      16.99643028      19.74171353      21.30526209 
Ag      16.46095071      22.61915668      19.44176696 
Ag      16.53277865      10.58323128      16.59016406 
Ag      16.10151219      10.40528409      13.11631233 
S      16.35833960      17.44459746      21.59817428 
S      20.06971564      14.54731440      20.05271883 
S      23.15102044      17.90997224      12.51191996 
S      23.04694529      16.44086193      17.05724459 
S      18.69277845      19.34790281      11.78689134 
S      19.64901062      15.36884593      11.86890541 
S      15.33062726      16.20194974      10.12868462 
S      13.66534260      11.82195134      16.93419268 
S      14.11028709      14.18762677      20.98956852 
S      20.15709145      12.96936663      15.51941102 
S      12.25761277      17.90711655      12.30844070 
S      11.91652098      20.20362088      15.77168721 
S      12.50223447      13.88821463      13.24167653 
S      10.12062618      14.91499290      18.80014368 
S      12.86777966      18.67928263      19.79900490 
S      19.39451185      21.02461528      15.55906546 
S      19.51768895      19.22467966      19.62092290 
S      15.41185464      21.77262629      12.98708507 
S      15.67430216      23.45861631      17.33685932 
S      17.36930121      22.09981493      21.58218805 
S      17.49097994      11.70518865      18.48756369 
S      16.11411799      11.73157349      11.11666087 
S       8.47284803      17.51505110      15.13871375 
S      15.92622510       8.91655882      14.96428954 
C      17.18859033      24.26141789      16.65593566 
C      16.10420151      22.67860294      22.79027000 
C      15.10319004      23.54776979      13.36271574 
C      12.07883577      19.59527625      11.60741243 
C       8.17689007      19.16348387      15.90493040 
C      11.86387526      21.24305159      17.28616585 
C      13.14297487      19.62301174      21.35560919 
C       9.80660748      16.05542256      20.21421229 
C      12.52049576      13.54891405      21.66273064 
C      11.92384307      11.87908639      16.35233767 
C      10.81321051      14.23649684      12.59398056 
C      18.37037238      18.89032399      10.03861120 
C      15.49938388      14.92002700       8.81880722 
C      14.37247005      11.56168086      10.53636238 
C      20.23819447      11.14080874      15.71821627 
C      23.58370379      14.68869514      16.84955664 
C      20.97540646      19.98677101      18.80108039 
C      20.73329667      21.51693448      14.39494321 
C      23.39944537      16.33189494      11.59516721 
C      17.62761425      16.66900261      22.67870434 
C      21.87204069      14.61703423      20.42065145 
C      16.56853223      11.08597913      19.95220649 
C      19.95146610      13.55620429      11.83912124 
C      17.38525867       7.79986069      14.82809934 
H      11.83615716      11.21060039      15.48862585 
H      11.64325655      12.89425802      16.04964899 
H      11.27228735      11.53413041      17.16231833 
H      10.66216630      13.63395609      11.69091526 
H      10.68257251      15.29700775      12.35357415 
H      10.08363519      13.94038954      13.35647114 
H      12.64015420      12.47916454      21.87014449 
H      11.69997238      13.68960343      20.94936888 
H      12.29836127      14.07785616      22.59648554 
H       8.72443376      16.15842139      20.34941182 
H      10.26076087      17.03844996      20.05328776 
H      10.24301895      15.60707235      21.11497440 
H       7.81705155      19.83846132      15.11985560 
H       9.09535160      19.57332804      16.33789736 
H       7.40688705      19.06086824      16.67696522 
H      11.67006474      22.27932811      16.98835833 
H      12.80881404      21.18353477      17.83758641 
H      11.05556431      20.87865725      17.92969259 
H      13.14707394      20.69203915      21.11294946 
H      14.09089315      19.34798882      21.83072708 
H      12.31269256      19.40599195      22.03757481 
H      17.38377102      15.60489224      22.77364926 
H      17.58406246      17.14789143      23.66295620 
H      18.63152495      16.77641585      22.25324146 
H      16.09018743      23.77434253      22.78224191 
H      16.39968074      22.32762270      23.78566732 
H      15.10639007      22.29876085      22.55389907 
H      20.84775492      21.07461394      18.83005642 
H      21.05446181      19.66269974      17.75772068 
H      21.87528103      19.69972180      19.35554141 
H      20.74323745      22.61103709      14.32958963 
H      20.58024308      21.09150322      13.39745711 
H      21.68957008      21.16663539      14.80018851 
H      22.26780287      13.59512007      20.42702998 
H      22.00179524      15.06337609      21.41347944 
H      22.40812701      15.22110806      19.67972956 
H      24.62330180      14.67923631      16.50449092 
H      22.94700069      14.14902625      16.14119189 
H      23.52214430      14.19650641      17.82758728 
H      20.03340521      10.68112129      14.74425975 
H      19.51124551      10.78283837      16.45547002 
H      21.25129578      10.87531660      16.04156708 
H      16.85023320      10.04021021      20.11801169 
H      15.48578436      11.16121984      19.80187642 
H      16.85785429      11.69052589      20.81881497 
H      14.22548683      12.25044873       9.69581048 
H      13.65736447      11.80799792      11.32799817 
H      14.21480450      10.53302071      10.19454121 
H      17.23795093       7.13891024      13.96644658 
H      17.43914113       7.19696708      15.74181159 
H      18.31862523       8.35641011      14.70573654 
H      12.90244938      19.76491373      10.90538654 
H      12.10190834      20.35861210      12.39333819 
H      11.12052589      19.63288471      11.07637831 
H      15.90886414      24.14479501      12.92050691 
H      15.05640239      23.72657255      14.44297500 
H      14.14780112      23.83342909      12.90730340 
H      19.09501834      19.43179343       9.41928279 
H      17.35195423      19.20081804       9.78157487 
H      18.47569694      17.81100843       9.88114548 
H      19.87047279      13.20814304      10.80359290 
H      19.22566882      13.02831745      12.46847536 
H      20.95912235      13.36500982      12.22413268 
H      23.42004473      16.56540023      10.52444282 
H      22.58809764      15.62379829      11.79312306 
H      24.36072416      15.89854669      11.89114675 
H      16.97911408      24.56082685      15.62210796 
H      18.04648001      23.58135544      16.66258807 
H      17.41053618      25.15163752      17.25434909 
H      16.23126283      15.27451030       8.08365721 
H      14.52775601      14.78858129       8.32915433 
H      15.83929024      13.96461615       9.23519966 
