156
Properties=species:S:1:pos:R:3 i=123 optimized=T E=-1742.124142474 pbc="F F F" jobid=36_24-Ag-88_9-000008-PBE
Ag      16.09053174      15.80185891      14.44483070 
Ag      16.02794783      18.44408230      15.78689082 
Ag      17.87057584      16.30699683      16.75828896 
Ag      16.80740736      14.02367918      18.05838610 
Ag      14.94362255      16.02114985      17.16042936 
Ag      17.71109515      19.04812324      18.06258965 
Ag      14.33388373      17.85089624      13.59808259 
Ag      19.12443860      18.55428807      15.44911018 
Ag      17.13629932      18.13540075      13.20916801 
Ag      19.12661013      16.08852177      14.16021145 
Ag      15.05306674      13.39788019      15.68440795 
Ag      12.99609890      18.00827801      16.27746346 
Au      15.98959897      20.97775641      16.98758203 
Ag      17.33991617      21.05185593      14.31982885 
Ag      14.90559984      18.81951560      18.40580063 
Au      20.01372896      13.83174198      17.74359418 
Ag      17.78865079      13.62901214      15.24427598 
Ag      13.05099221      15.52337813      15.04078264 
Ag      14.05017340      15.25935368      11.91643048 
Ag      13.93025993      13.46798151      18.69962722 
Ag      17.31540741      15.66166889      11.53915472 
Ag      16.66261903      16.56310528      19.33838875 
Ag      12.22035323      15.70790499      17.75190502 
Ag      13.72099115      16.37067838      20.23590862 
Ag      19.62704272      16.83762979      19.29728656 
Ag      14.05020816      20.61926154      14.70908244 
Ag      20.77269469      18.31332949      12.41562078 
Ag      16.03952806      13.38000299      13.01896097 
Ag      20.66893200      16.44254663      16.53018578 
Ag       9.41737174      16.18821200      16.98370375 
Ag      10.64737429      17.72857703      14.10173507 
Ag      22.97741249      17.25186681      14.85876872 
Ag      17.05884169      19.87071543      21.24753456 
Au      16.48273777      22.82059930      19.43302583 
Ag      16.59330983      10.67834229      16.53091494 
Au      16.14901467      10.41980627      12.96168583 
S      16.47700377      17.55986404      21.60341849 
S      20.02064711      14.53593299      19.99335311 
S      23.13693223      17.87843661      12.56467491 
S      23.07228223      16.56610224      17.15994937 
S      18.71575100      19.38652685      11.78682052 
S      19.66341831      15.20214571      11.90735995 
S      15.39421543      16.32904054      10.22037229 
S      13.62420783      11.82339005      16.94756105 
S      14.18774864      14.14040217      21.01988649 
S      20.17222021      12.96619449      15.55834967 
S      12.23408774      17.92433030      12.30104865 
S      11.95614476      20.21857642      15.86531309 
S      12.53003936      13.91732534      13.23225536 
S      10.15552558      14.86355019      18.84847333 
S      12.88388101      18.59295728      19.80473403 
S      19.40807804      21.00458816      15.57538589 
S      19.59597055      19.22542683      19.66201936 
S      15.42180654      21.55250397      12.93499162 
S      15.71119433      23.40650469      17.28366081 
S      17.35165815      22.25785650      21.52767631 
S      17.41888413      11.67286179      18.55966860 
S      16.12884311      11.80072310      11.05765630 
S       8.51409228      17.49014515      15.20448171 
S      16.03994777       9.03688129      14.84295384 
C      17.18485461      24.18786296      16.50929161 
C      16.07488214      22.78031462      22.74523143 
C      15.08507940      23.35027037      13.15060265 
C      12.01424305      19.62613406      11.64000149 
C       8.24254293      19.13928189      15.97778071 
C      11.99404344      21.23165274      17.39814211 
C      13.14637076      19.53920765      21.36295832 
C       9.84529079      15.99393766      20.27126249 
C      12.60901125      13.51695340      21.73354546 
C      11.89163402      11.92092690      16.34774563 
C      10.85058747      14.26815633      12.56063891 
C      18.45284977      18.92306440      10.02715527 
C      15.49928966      15.13809318       8.81978650 
C      14.39948474      11.63817118      10.44828864 
C      20.26923223      11.14284571      15.77989176 
C      23.70553246      14.84101343      17.00411314 
C      21.05067215      19.97459074      18.82576850 
C      20.73921770      21.50211454      14.40418890 
C      23.35415755      16.26992147      11.69504838 
C      17.81487096      16.85376119      22.64818911 
C      21.79670262      14.62259880      20.46413997 
C      16.32539055      10.98012398      19.86693663 
C      19.85367607      13.37482475      11.93775007 
C      17.49992822       7.92423244      14.72714222 
H      11.80029841      11.26337752      15.47598901 
H      11.63339285      12.94437439      16.05274803 
H      11.22433827      11.58141959      17.14718714 
H      10.70875243      13.65713046      11.66180996 
H      10.72972731      15.32722724      12.30886807 
H      10.11088315      13.98210930      13.31708662 
H      12.72922149      12.44865278      21.94824109 
H      11.77510037      13.65291267      21.03526868 
H      12.40698032      14.05544582      22.66630491 
H       8.76365569      16.09681902      20.41047896 
H      10.29995833      16.97767237      20.11551939 
H      10.28385412      15.53908774      21.16771521 
H       7.88753099      19.82122771      15.19653859 
H       9.16848034      19.53614983      16.40734335 
H       7.47461068      19.04381146      16.75272594 
H      11.70413251      22.25546412      17.13641332 
H      12.99532159      21.23243467      17.84382970 
H      11.28306236      20.80932330      18.11621982 
H      13.16550442      20.60722917      21.11672889 
H      14.08436007      19.25540405      21.85201698 
H      12.30432210      19.33214781      22.03351996 
H      17.65503612      15.77228763      22.72174852 
H      17.74986289      17.30495812      23.64452059 
H      18.80215301      17.05026853      22.21531304 
H      16.03235489      23.87515449      22.75860832 
H      16.38986796      22.41437454      23.72944169 
H      15.08915411      22.37461480      22.50179953 
H      21.01578644      21.05457631      19.00947164 
H      21.01591833      19.79455527      17.74560470 
H      21.96554424      19.55059868      19.25269155 
H      20.76544386      22.59738191      14.36784738 
H      20.56206237      21.10631306      13.39846103 
H      21.69628940      21.12679704      14.78420741 
H      22.21183906      13.60865886      20.46863747 
H      21.84775131      15.04391845      21.47525631 
H      22.35972142      15.26085231      19.77383753 
H      24.75840470      14.87853483      16.70374175 
H      23.12951421      14.26128970      16.27631406 
H      23.62479540      14.35583520      17.98401968 
H      20.10633972      10.68604343      14.79627362 
H      19.51149109      10.78448267      16.48577600 
H      21.27033491      10.88679324      16.14442028 
H      16.64036441       9.94849342      20.06042573 
H      15.27267271      10.99511185      19.56340920 
H      16.44878875      11.58350417      20.77288015 
H      14.27790561      12.33764820       9.61236957 
H      13.67455402      11.88284812      11.23164463 
H      14.24301304      10.61396119      10.09336806 
H      17.35838844       7.25171483      13.87359660 
H      17.54290095       7.33730963      15.65207038 
H      18.43130267       8.48416501      14.60496847 
H      12.81972289      19.81774352      10.92239419 
H      12.05754878      20.37294443      12.44065621 
H      11.04413864      19.67599156      11.13319874 
H      15.89052171      23.91866367      12.67152020 
H      15.01672325      23.62526427      14.20877546 
H      14.13368438      23.58271597      12.65781127 
H      19.20460395      19.44002490       9.42043767 
H      17.44891567      19.25115241       9.73591626 
H      18.53506524      17.84021131       9.88094040 
H      19.77893483      13.00260190      10.91002557 
H      19.08061775      12.90413076      12.55671579 
H      20.83898614      13.13659685      12.35330880 
H      23.35918497      16.47008075      10.61739689 
H      22.53901761      15.57664602      11.92782561 
H      24.31653382      15.83749457      11.98869731 
H      16.96446173      24.34067632      15.44595795 
H      18.07069638      23.55257956      16.60813313 
H      17.35301258      25.15529618      16.99547755 
H      16.23337603      15.51867580       8.10000629 
H      14.51658179      15.07524206       8.33874671 
H      15.81058877      14.14464341       9.16083269 
