156
Properties=species:S:1:pos:R:3 i=90 optimized=T E=-1636.3751051552 pbc="F F F" jobid=36_24-Ag-11_1-000002-PBE
Au      16.09604251      15.80957390      14.48164798 
Au      16.01548026      18.42325520      15.79742108 
Au      17.90633110      16.28510011      16.89985212 
Au      16.80505464      14.00484771      18.15262622 
Ag      14.89828991      15.97043036      17.24583499 
Au      17.60903038      19.09465055      18.15061310 
Ag      14.31382643      17.89053553      13.59572212 
Au      19.11782906      18.58442062      15.59816678 
Au      17.12838819      18.08380166      13.19821991 
Au      19.14909438      16.09052776      14.30605348 
Au      15.07090668      13.41655544      15.60995012 
Au      12.90848811      17.94754285      16.24509071 
Au      15.91144922      20.99122525      16.90195956 
Au      17.47986462      21.35059064      14.38251043 
Au      14.82518676      18.81940816      18.37154433 
Au      20.18120712      13.73229987      17.74668686 
Au      17.80310568      13.58428673      15.25007292 
Au      12.96471223      15.48185896      15.01008756 
Au      13.97534681      14.98900589      11.71418350 
Au      13.73281573      13.28282258      18.73540751 
Au      17.47060339      15.60951528      11.29769030 
Au      16.73797980      16.49835670      19.43736232 
Au      12.11857775      15.67374418      17.69340146 
Au      13.38308729      16.46003202      20.31238638 
Au      19.89186953      16.82583661      19.55760814 
Au      13.94669798      20.85695096      14.58450437 
Au      20.59905488      18.74859170      12.00999875 
Ag      16.14090106      13.44393517      12.93688120 
Au      20.69466439      16.47219638      16.64652759 
Au       9.24980478      16.18131511      16.78365032 
Ag      10.84553290      17.61054086      13.86983976 
Au      22.95018954      17.38157063      14.47734539 
Au      16.88512806      19.42836578      21.70962233 
Au      16.49495630      22.47806321      19.73385788 
Au      16.74331096      10.50087035      17.07408747 
Au      16.25177979      10.35398601      13.40941697 
S      16.44696509      17.12877375      21.78065488 
S      20.35223402      14.53483618      19.95786468 
S      22.89408597      18.29517556      12.31188323 
S      23.12630351      16.53261236      16.66898702 
S      18.39895674      19.47703894      11.64204000 
S      19.68719102      15.33709552      12.05113673 
S      15.43220966      15.98354116      10.15609937 
S      13.60075981      11.90135362      16.82788606 
S      13.84793722      14.22736920      20.90965376 
S      20.10342141      12.85330680      15.56511662 
S      12.40141367      17.98519607      12.04751460 
S      12.03204067      20.18065762      15.78059433 
S      12.48063091      13.93586204      13.18612575 
S       9.96508346      15.00427908      18.70227276 
S      12.86823957      18.69868498      19.80900892 
S      19.44484895      20.99521031      15.62154506 
S      19.55534308      19.16066402      19.60571621 
S      15.54786408      21.74939235      13.08924643 
S      15.72985275      23.29758326      17.66630683 
S      17.32771683      21.73985315      21.79805716 
S      17.47380430      11.77658932      18.89521173 
S      16.34833448      11.50381072      11.36719477 
S       8.62206040      17.31712403      14.83813306 
S      16.02440647       9.06446494      15.35792745 
C      17.19308174      24.17043684      16.97567013 
C      16.15420838      22.40572304      23.04620762 
C      15.23348258      23.55458498      13.22773101 
C      12.10957923      19.72049817      11.51418816 
C       8.19130750      19.00710541      15.42167620 
C      12.01633333      21.19366264      17.30926237 
C      13.22418760      19.68041288      21.31726431 
C       9.66225195      16.20064593      20.06513535 
C      12.29481943      13.60345823      21.66593651 
C      11.87585431      12.05640908      16.22484346 
C      10.80586757      14.31804609      12.53479717 
C      18.01558021      18.95528501       9.92567254 
C      15.54082686      14.77724501       8.77425057 
C      14.66588195      11.23593021      10.66878757 
C      20.10519493      11.02736812      15.73627417 
C      23.64327828      14.78716823      16.40810619 
C      20.98131061      19.87016752      18.69719445 
C      20.84197267      21.40414745      14.50600553 
C      23.19922339      16.84646068      11.22284400 
C      17.87589087      16.41199895      22.68310821 
C      22.15496875      14.55768786      20.31111243 
C      16.38473932      11.26695336      20.28060145 
C      19.97078934      13.52478154      12.04365723 
C      17.33553010       7.78280264      15.23024455 
H      11.83250094      11.59956764      15.22974924 
H      11.56886274      13.10693543      16.16525837 
H      11.22718408      11.51114998      16.91962167 
H      10.62736584      13.66855202      11.66990606 
H      10.71849701      15.36948538      12.23868493 
H      10.08154935      14.09200859      13.32606286 
H      12.43121921      12.53703728      21.88076439 
H      11.44424153      13.73555295      20.98848072 
H      12.12664560      14.14968564      22.60105176 
H       8.59526537      16.16800475      20.31380836 
H       9.95379525      17.21517694      19.77972377 
H      10.25981866      15.88923009      20.93061640 
H       7.95515473      19.60797613      14.53552097 
H       9.02261147      19.46959562      15.96274144 
H       7.30800035      18.94420358      16.06636350 
H      11.73627759      22.21620804      17.03221119 
H      12.99976382      21.18565742      17.79223111 
H      11.26884895      20.76444386      17.98564380 
H      13.16864094      20.73946309      21.03745461 
H      14.22295424      19.45990593      21.71605954 
H      12.45567675      19.44983738      22.06387705 
H      17.77317613      15.32140032      22.64699944 
H      17.83327497      16.75817219      23.72180467 
H      18.82518698      16.70625385      22.22027227 
H      16.24931644      23.49752497      23.04802707 
H      16.44622532      22.00668014      24.02429995 
H      15.12211155      22.12246838      22.82238208 
H      20.77181757      20.93248242      18.52958474 
H      21.12856195      19.36437829      17.73662993 
H      21.86961027      19.75425360      19.32847216 
H      20.87217834      22.49278437      14.38277571 
H      20.73691272      20.91326433      13.52998024 
H      21.76219655      21.05735033      14.99135043 
H      22.51230068      13.52170466      20.32169804 
H      22.29736662      15.00829582      21.30032255 
H      22.69899480      15.13937917      19.56013349 
H      24.69545914      14.78641568      16.10169124 
H      23.02547646      14.29496375      15.65153519 
H      23.53090188      14.25756935      17.36164596 
H      19.90791864      10.60774800      14.74221739 
H      19.33015747      10.68900387      16.43598017 
H      21.09717572      10.71710571      16.08385911 
H      16.64664858      10.23982928      20.55849326 
H      15.32757837      11.32851029      19.99625946 
H      16.57772021      11.94456623      21.12003500 
H      14.57124562      11.86638151       9.77663135 
H      13.88567918      11.51093282      11.38473642 
H      14.56324082      10.18288380      10.38510061 
H      17.09285623       7.13820215      14.37776099 
H      17.32042002       7.19513691      16.15527602 
H      18.32424297       8.22814567      15.08925647 
H      12.88889311      19.98975723      10.79191025 
H      12.15408370      20.41328220      12.36308184 
H      11.12641371      19.78013637      11.03394317 
H      16.05018458      24.07854759      12.71811848 
H      15.17731965      23.87042899      14.27392245 
H      14.28380854      23.77102613      12.72478290 
H      18.63232512      19.55211131       9.24428108 
H      16.95366423      19.16028296       9.74815660 
H      18.21042783      17.88630012       9.78045649 
H      20.00878422      13.19211601      11.00047882 
H      19.17541193      12.99588837      12.58060234 
H      20.93058639      13.33757841      12.53814771 
H      23.15171227      17.19794780      10.18578185 
H      22.44954046      16.06561317      11.38498203 
H      24.20393853      16.46705821      11.43876168 
H      16.98521688      24.39489542      15.92275961 
H      18.09295188      23.55190637      17.03973369 
H      17.32977555      25.10191961      17.53656230 
H      16.27531163      15.15819369       8.05519911 
H      14.55528200      14.71486108       8.29921443 
H      15.85319783      13.79209735       9.13469013 
