156
Properties=species:S:1:pos:R:3 i=110 optimized=T E=-1674.1640355485 pbc="F F F" jobid=36_24-Ag-38_9-000002-PBE
Ag      16.16455654      15.71799084      14.42283000 
Ag      16.11395190      18.36690094      15.86882389 
Au      17.95689152      16.27079666      16.84606061 
Ag      16.96434195      13.89581316      18.05710825 
Au      15.05550566      15.92319740      17.21440496 
Au      17.65054013      19.16387953      18.18226422 
Ag      14.38245847      17.83840358      13.64173951 
Au      19.13733673      18.57346338      15.64161674 
Au      17.15787523      18.06009081      13.23815254 
Ag      19.18701371      16.10545832      14.21471506 
Au      15.22886288      13.16135296      15.67524338 
Ag      13.21608787      17.95109741      16.35193664 
Ag      15.84759965      20.93097139      16.90333533 
Ag      17.36925561      20.95585832      14.32175180 
Ag      14.96662397      18.77322782      18.61664617 
Au      20.18452646      13.82350597      17.85652719 
Au      17.92259728      13.54707107      15.19194521 
Au      13.24819747      15.34873302      15.11507833 
Ag      14.00698852      15.19972871      12.02741975 
Ag      14.00928071      13.46816575      18.76231757 
Au      17.46142773      15.56296592      11.37664762 
Au      16.75444346      16.42710560      19.39057276 
Au      12.29415041      15.65701659      17.72883408 
Au      13.36536533      16.40763627      20.39053775 
Ag      19.73215004      16.89461920      19.36759580 
Au      13.89899463      20.73029370      14.58955152 
Au      20.75179950      18.50813212      12.05330708 
Au      16.14642573      13.27872599      13.01659230 
Au      20.73422476      16.46886494      16.57326428 
Au       9.22313981      16.68583691      16.62795646 
Ag      10.48082951      18.17241366      13.84052205 
Au      23.04904999      17.16674829      14.50028154 
Au      16.59916853      19.36768324      21.46516678 
Au      16.08435761      22.49000694      19.44464114 
Ag      16.70266818      10.53410720      16.63713270 
Au      16.11699458      10.22103241      13.06069564 
S      16.52017740      17.03433398      21.73646410 
S      20.29127667      14.61516180      20.06688211 
S      23.02875281      17.94559157      12.28511190 
S      23.16573145      16.47307690      16.74926682 
S      18.60671011      19.40275860      11.75362126 
S      19.70838856      15.16269973      11.97311214 
S      15.43104351      16.13340743      10.29996287 
S      13.79526385      11.76078848      17.03555265 
S      13.95758734      14.23606805      21.08116712 
S      20.22616754      12.95272853      15.66346246 
S      12.29686170      17.90982829      12.29521499 
S      12.03586258      20.07954338      15.87647979 
S      12.39602678      13.94301302      13.34092852 
S       9.98189204      15.19508608      18.28490286 
S      12.77145906      18.60750857      19.79983044 
S      19.42787169      20.98091637      15.59357903 
S      19.59824247      19.30638243      19.65529993 
S      15.42991494      21.57323079      13.00649947 
S      15.50096297      23.38749460      17.35111398 
S      16.81374325      21.71232246      21.53237853 
S      17.53885538      11.57028086      18.65545100 
S      15.94562177      11.65353227      11.19153984 
S       8.34753561      18.08955213      14.96641729 
S      16.17477480       8.86048662      14.95708657 
C      17.06051645      24.20507456      16.81072830 
C      15.56104046      22.29026590      22.74440083 
C      15.22974312      23.39089709      13.19988941 
C      12.36578824      19.42417800      11.25912477 
C       8.18710142      19.72637873      15.78986203 
C      12.02673666      21.16162619      17.36118161 
C      12.90308029      19.58905057      21.34720418 
C       9.63396429      16.09460311      19.84908978 
C      12.40073880      13.46787241      21.69075957 
C      12.08036452      11.82377036      16.38675727 
C      10.71410946      14.53470491      12.90066803 
C      18.13700761      19.01358025      10.02547694 
C      15.38071766      14.93516559       8.90706628 
C      14.16223842      11.56355561      10.75182951 
C      20.27376710      11.12643885      15.84404111 
C      23.68726729      14.71400711      16.63430539 
C      21.02011782      20.00632474      18.73080513 
C      20.78948282      21.39513751      14.43308682 
C      23.23188642      16.42754112      11.27066185 
C      18.09518323      16.65190866      22.60210327 
C      22.08859521      14.76983804      20.42457306 
C      16.43773382      10.96036849      19.99555782 
C      19.89798223      13.33754391      12.02010273 
C      17.67883696       7.81780319      14.78159141 
H      12.05698124      11.32373827      15.41273140 
H      11.74019009      12.85885050      16.27640397 
H      11.44096100      11.29094181      17.10014804 
H      10.31706254      13.83919203      12.15085191 
H      10.73769380      15.54718142      12.48505368 
H      10.08122085      14.51324938      13.79521685 
H      12.61046301      12.41115357      21.89546682 
H      11.59691278      13.54045901      20.95156697 
H      12.10100507      13.96694978      22.61920802 
H       8.54685426      16.13229864      19.98235346 
H      10.05341838      17.10501247      19.82769495 
H      10.09214027      15.53099666      20.67042451 
H       7.85197480      20.44095194      15.02887744 
H       9.14234106      20.05952683      16.20705076 
H       7.43142827      19.65182954      16.57899107 
H      11.80622580      22.18744331      17.04779901 
H      12.99067568      21.12586076      17.88223023 
H      11.24279914      20.79032951      18.03110780 
H      12.77523709      20.64381389      21.07392616 
H      13.88240503      19.44972512      21.82279074 
H      12.10253042      19.28525143      22.03053138 
H      18.24110387      15.56661588      22.56148112 
H      17.99067936      16.97939682      23.64283100 
H      18.94682527      17.15630527      22.13228199 
H      15.60372177      23.38524366      22.77084308 
H      15.83266169      21.88564223      23.72615070 
H      14.55278854      21.96457817      22.47381079 
H      20.82718555      21.06940551      18.55046745 
H      21.16267322      19.49548990      17.77251181 
H      21.91270385      19.88808808      19.35597544 
H      20.77669542      22.48050785      14.27807568 
H      20.67986308      20.88002000      13.47158762 
H      21.73709169      21.09907934      14.89766797 
H      22.52967741      13.76775013      20.46866995 
H      22.18912818      15.25663461      21.40214232 
H      22.59857445      15.37305004      19.66604771 
H      24.75360107      14.69225296      16.38234421 
H      23.10675072      14.17355902      15.88121195 
H      23.52472336      14.25054615      17.61480980 
H      20.07436910      10.69001394      14.85820821 
H      19.52947896      10.77478161      16.56747730 
H      21.28023538      10.84801778      16.17771233 
H      16.69547721       9.91546478      20.20264565 
H      15.38083678      11.02952416      19.71422607 
H      16.61583527      11.56775825      20.88990446 
H      13.94468079      12.37775830      10.05008255 
H      13.52579544      11.66996138      11.63490789 
H      13.98242219      10.59719346      10.26727656 
H      17.53206206       7.13075833      13.94062015 
H      17.79186208       7.24315647      15.70836388 
H      18.57585867       8.42020648      14.61301303 
H      13.18625549      19.30348791      10.54237945 
H      12.54825067      20.31319204      11.87344110 
H      11.41828683      19.52648030      10.71903775 
H      16.06791976      23.87702392      12.68723558 
H      15.21996308      23.67698187      14.25677711 
H      14.28678181      23.69146138      12.72903068 
H      18.82003206      19.54732383       9.35549523 
H      17.11063412      19.36840702       9.87765193 
H      18.18050938      17.93368813       9.84269382 
H      19.88844451      12.96042622      10.99158053 
H      19.09156703      12.87073000      12.59815220 
H      20.86094279      13.11557545      12.49407729 
H      23.19590811      16.72969133      10.21764114 
H      22.43453713      15.70586268      11.47570411 
H      24.21326445      15.99785217      11.49889397 
H      16.90598583      24.55959697      15.78442147 
H      17.90738087      23.51161130      16.82681858 
H      17.26042106      25.06045264      17.46484469 
H      16.10321352      15.25298931       8.14645028 
H      14.37038382      14.95103080       8.48192837 
H      15.63027013      13.92365146       9.24566622 
