156
Properties=species:S:1:pos:R:3 i=130 optimized=T E=-1715.7096738487 pbc="F F F" jobid=36_24-Ag-69_4-000009-PBE
Ag      16.03184252      15.77383455      14.43789797 
Au      15.96669039      18.40912293      15.78986611 
Ag      17.86780224      16.26040684      16.76741988 
Au      16.79389237      14.01729968      18.12859593 
Ag      14.90368457      15.99064680      17.17264744 
Ag      17.66254246      18.98585552      18.02056830 
Ag      14.27577771      17.84978238      13.59577859 
Ag      19.07984280      18.55320523      15.43040002 
Ag      17.10326428      18.14546259      13.22734429 
Au      19.08350632      16.04900461      14.17201881 
Au      15.03806224      13.39801440      15.67058112 
Ag      12.95838116      18.01223302      16.29066767 
Ag      15.94606446      20.97372835      16.93703255 
Ag      17.30059176      21.05187758      14.31274224 
Ag      14.88511718      18.75713780      18.40284639 
Ag      19.94721266      13.81024747      17.72819697 
Ag      17.77686990      13.55885588      15.24986866 
Ag      12.97976620      15.51878387      15.05811626 
Au      13.88391902      15.04367760      11.87864446 
Ag      13.90730246      13.50348234      18.82740157 
Ag      17.21598360      15.64715036      11.59267576 
Au      16.67095688      16.47591863      19.37267613 
Ag      12.21669466      15.74433162      17.82443015 
Ag      13.69807323      16.40509827      20.31437725 
Ag      19.69064216      16.68662158      19.27163397 
Ag      13.95322598      20.62334877      14.73106681 
Ag      20.71240086      18.38272487      12.41511142 
Ag      15.96043122      13.30359245      13.03005675 
Au      20.65430430      16.42492795      16.44491758 
Au       9.43856634      16.14734382      16.93843367 
Au      10.67666794      17.66134029      13.72932392 
Au      23.08301092      17.21426740      14.79428406 
Ag      17.26062479      19.86886358      21.13110853 
Ag      16.45961130      22.66806638      19.42011554 
Ag      16.47856329      10.72213258      16.46309588 
Au      16.24629940      10.34411581      12.99837319 
S      16.53903824      17.57679055      21.53481991 
S      20.16127226      14.42972701      20.05328149 
S      23.10335142      18.01143925      12.59469675 
S      23.03977385      16.41344369      17.01796900 
S      18.63155507      19.38873116      11.73712155 
S      19.59283810      15.28301869      11.91157537 
S      15.22104785      16.22116993      10.32970997 
S      13.61100597      11.92024296      17.00809921 
S      14.04472628      14.16772766      21.15297729 
S      20.13097148      12.85735238      15.51132532 
S      12.31116723      18.12743428      12.10903636 
S      11.90417085      20.23276964      15.95412679 
S      12.41830450      13.84367248      13.27520083 
S      10.06181401      14.99204726      18.89256021 
S      12.91877560      18.65960595      19.89098915 
S      19.34279159      20.99279260      15.60003092 
S      19.55581434      19.09255130      19.60374904 
S      15.35341841      21.58321730      12.99870173 
S      15.62499562      23.39207377      17.29044165 
S      17.42482675      22.24373432      21.55648167 
S      17.43821759      11.70011658      18.46553255 
S      16.36110409      11.73501584      11.10290878 
S       8.72030924      17.23424077      14.98547268 
S      15.96436276       8.96713623      14.86566346 
C      17.10831619      24.21508561      16.56788294 
C      16.09999541      22.64277344      22.77340356 
C      15.04024406      23.37795761      13.26475807 
C      12.04308234      19.90702902      11.73452305 
C       8.25634019      18.90991234      15.58060071 
C      12.01953185      21.27337175      17.46345071 
C      13.26168868      19.59006204      21.44191818 
C       9.74732205      16.21354021      20.23323603 
C      12.41738782      13.61149885      21.80875879 
C      11.88582067      12.00751203      16.39252949 
C      10.74381368      14.16182757      12.58738964 
C      18.37679389      18.84833725       9.99784386 
C      15.38713958      15.11224600       8.87160843 
C      14.71364761      11.46750823      10.32336843 
C      20.17253904      11.03243216      15.74812767 
C      23.55772850      14.65836436      16.82466126 
C      20.97680212      19.94931713      18.81788215 
C      20.68476208      21.52338740      14.45532825 
C      23.36102979      16.49343962      11.58751338 
C      17.83528743      16.80155482      22.57829074 
C      21.96217876      14.54344439      20.41464707 
C      16.45093189      11.04543291      19.86901214 
C      19.87120750      13.46936562      11.93194336 
C      17.41362850       7.83428791      14.88509852 
H      11.84600570      11.53680168      15.40426681 
H      11.54416216      13.04646088      16.31640927 
H      11.25249472      11.45876804      17.09899281 
H      10.65142586      13.64742999      11.62463328 
H      10.55826554      15.23595482      12.46407815 
H      10.01907608      13.74695083      13.29835552 
H      12.48240958      12.53941451      22.02834610 
H      11.61358551      13.78233427      21.08407503 
H      12.20588097      14.15972405      22.73385367 
H       8.66731803      16.37050918      20.32475409 
H      10.25704300      17.16407727      20.04483458 
H      10.13399532      15.77945261      21.16337883 
H       7.91728807      19.48587144      14.71188734 
H       9.11012263      19.41212941      16.04822013 
H       7.43282320      18.79868990      16.29431554 
H      11.93622705      22.32564940      17.17112907 
H      12.96496198      21.10754750      17.99212272 
H      11.19231134      21.00038498      18.12809691 
H      13.25977653      20.66082734      21.20572326 
H      14.22723998      19.30918915      21.87544745 
H      12.46006487      19.37330638      22.15740903 
H      17.60134766      15.73696509      22.68747576 
H      17.80875106      17.29171390      23.55839505 
H      18.82795204      16.91623106      22.12877499 
H      15.96656317      23.73012882      22.80139912 
H      16.42913550      22.29269280      23.75854595 
H      15.15048116      22.16390584      22.51883004 
H      20.76363366      21.02348667      18.79611881 
H      21.12446482      19.58877252      17.79403891 
H      21.87178990      19.75565415      19.41917201 
H      20.69758774      22.61927380      14.43327722 
H      20.52783868      21.13814764      13.44193177 
H      21.63948822      21.15302363      14.84570085 
H      22.39417114      13.53645186      20.38966132 
H      22.08349145      14.96451336      21.41975694 
H      22.48028921      15.18715210      19.69519029 
H      24.63388354      14.64327077      16.61861212 
H      23.00771536      14.16474589      16.01786527 
H      23.35278275      14.14086360      17.76939001 
H      19.89925692      10.55659352      14.79881042 
H      19.48141754      10.70859370      16.53377617 
H      21.19518163      10.74561234      16.01967334 
H      16.74794492      10.00116282      20.02166024 
H      15.37572829      11.10025790      19.66495593 
H      16.68465186      11.63458592      20.76243402 
H      14.63460005      12.14761909       9.46715850 
H      13.90015052      11.67618822      11.02494677 
H      14.65216647      10.43154909       9.97313585 
H      17.33027187       7.14492684      14.03741912 
H      17.37598976       7.26754024      15.82281102 
H      18.35915017       8.38041702      14.82571397 
H      12.90770512      20.25563737      11.15838898 
H      11.95450678      20.50374349      12.64939054 
H      11.12980852      19.99792542      11.13619113 
H      15.83917176      23.94923743      12.77854941 
H      15.00225422      23.62306823      14.33217973 
H      14.07914413      23.63063612      12.80182781 
H      19.10589083      19.36629850       9.36468368 
H      17.36109573      19.13085275       9.69931826 
H      18.49829118      17.76420554       9.89278285 
H      19.94644493      13.13657369      10.89031323 
H      19.04653502      12.94713582      12.42968488 
H      20.80210847      13.26217938      12.47019807 
H      23.30720336      16.78955693      10.53333304 
H      22.59335728      15.74120459      11.79486250 
H      24.35671726      16.09179876      11.80372966 
H      16.87955440      24.47960045      15.52858817 
H      17.98343626      23.55739497      16.58308560 
H      17.31488968      25.12764246      17.13744422 
H      16.07134655      15.59845046       8.16590518 
H      14.40353341      14.99174259       8.40415459 
H      15.79194525      14.13586673       9.15697326 
