156
Properties=species:S:1:pos:R:3 i=113 optimized=T E=-1689.2785082508 pbc="F F F" jobid=36_24-Ag-50_0-000001-PBE
Au      16.08601650      15.73197789      14.33281086 
Ag      16.02018956      18.39228036      15.72294756 
Au      17.87532612      16.29879685      16.70659302 
Au      16.89242269      14.00663979      18.04161382 
Ag      14.94360537      15.96286149      17.14647864 
Au      17.69092721      19.03859229      17.95724635 
Au      14.29208823      17.75466046      13.52116130 
Ag      19.07410959      18.58037155      15.37090954 
Au      17.05721956      18.02175544      13.05655443 
Ag      19.11999732      16.09062271      14.12341420 
Au      15.11997876      13.37796402      15.57665050 
Ag      12.99420521      17.97239253      16.23441292 
Ag      16.03046243      20.99610446      16.85852060 
Au      17.45780743      21.34464335      14.33647142 
Ag      14.96805343      18.78530984      18.39734817 
Au      20.13543227      13.72748735      17.67974753 
Ag      17.90630889      13.65558315      15.23476887 
Au      12.98625461      15.43516470      15.10391074 
Ag      13.98248621      15.06957841      11.97302105 
Ag      13.99813225      13.48918403      18.69262827 
Au      17.42014151      15.51939416      11.22396720 
Ag      16.79067153      16.52282032      19.30769564 
Ag      12.17486579      15.68531629      17.75344208 
Ag      13.56114962      16.37593791      20.22892278 
Au      19.83973591      16.82980199      19.47266061 
Ag      14.05913031      20.56655516      14.67778579 
Ag      20.49649676      18.50893006      12.41969019 
Au      16.18609320      13.30798366      12.96915412 
Ag      20.63600975      16.42353061      16.55150551 
Ag       9.45667522      16.48207027      16.81215704 
Au      10.51255197      17.98721364      13.73526555 
Au      22.93014454      17.34688309      14.79242037 
Au      16.74897476      19.42942295      21.43986235 
Au      16.28072644      22.49860107      19.44780508 
Ag      16.56635371      10.44853616      16.78135000 
Au      16.28336484      10.07849991      13.29047613 
S      16.30182457      17.14604810      21.66524678 
S      20.16293098      14.52508425      19.90545763 
S      22.88901181      18.23381640      12.62156259 
S      23.10868339      16.50681182      16.98170316 
S      18.41218138      19.45814301      11.66640601 
S      19.68221952      15.25426661      11.84643769 
S      15.34388192      16.00061438      10.19382550 
S      13.92007574      11.77794509      16.94547479 
S      13.87337828      14.13216299      21.03130795 
S      20.23593466      12.83748523      15.50554503 
S      12.28263205      18.11251878      12.20017128 
S      12.01190034      20.22953611      15.92021189 
S      12.34467798      13.89748309      13.31733421 
S       9.97345758      15.11837388      18.72843982 
S      12.86406384      18.61202031      19.67401499 
S      19.48431333      21.05209397      15.49090433 
S      19.65334408      19.17551854      19.43638435 
S      15.50273675      21.70351099      13.07750442 
S      15.45849872      23.37789552      17.43206461 
S      17.21959577      21.73479063      21.45642037 
S      17.43341979      11.70599158      18.66241435 
S      16.23459911      11.46590723      11.38824737 
S       8.54737570      17.76983825      15.00202015 
S      16.19311068       8.68311131      15.16198281 
C      16.87470990      24.37561300      16.80738236 
C      16.13671143      22.41835089      22.77542906 
C      15.03370127      23.45638850      13.37507394 
C      12.27365901      19.84571164      11.60122738 
C       8.30613766      19.43714283      15.73974700 
C      12.14677061      21.30000508      17.40643178 
C      13.02506442      19.60276513      21.21665819 
C       9.71197692      16.27506079      20.13800630 
C      12.20590707      13.52382130      21.51363742 
C      12.21425166      11.62345306      16.28811971 
C      10.68035616      14.38993469      12.71623246 
C      18.24080067      18.86924452       9.93457108 
C      15.29203188      14.79093216       8.81088055 
C      14.49495209      11.29672187      10.81088543 
C      20.19083222      11.01246501      15.71963238 
C      23.71316089      14.78890828      16.71284942 
C      21.10654048      19.76613029      18.48516046 
C      20.78620306      21.58703291      14.30791100 
C      23.25592295      16.78959011      11.54418324 
C      17.67891214      16.47610750      22.68222527 
C      21.93229237      14.49428050      20.40155197 
C      16.39963977      11.18489827      20.08823075 
C      20.00162882      13.44706292      11.88412155 
C      17.73271028       7.67859418      15.11258674 
H      12.25026066      11.05291605      15.35373279 
H      11.78591917      12.61288206      16.09413435 
H      11.61527061      11.08937482      17.03435480 
H      10.50085392      13.87816785      11.76350818 
H      10.59940603      15.47455951      12.57782324 
H       9.93877358      14.06293517      13.45439061 
H      12.26502689      12.44002368      21.66661811 
H      11.46108780      13.74073655      20.73859655 
H      11.91711021      14.00769305      22.45372199 
H       8.63758046      16.45898074      20.24731735 
H      10.24386376      17.22051041      19.98985626 
H      10.09124821      15.79185354      21.04680958 
H       7.94731403      20.10964221      14.95242251 
H       9.24414413      19.82323055      16.15361869 
H       7.54574827      19.35208437      16.52387871 
H      12.11951430      22.34859176      17.09126459 
H      13.07260462      21.10333237      17.95890264 
H      11.29359101      21.08093933      18.05838529 
H      12.89066903      20.65854731      20.95220712 
H      14.01037585      19.46617403      21.67966281 
H      12.23779457      19.29495323      21.91394299 
H      17.55299124      15.38780729      22.71950536 
H      17.60780480      16.89388681      23.69215768 
H      18.65031213      16.71821969      22.23654936 
H      16.25095991      23.50839502      22.77118813 
H      16.48099198      22.01398684      23.73414727 
H      15.08809266      22.15342638      22.61473308 
H      20.95450209      20.83372367      18.28998884 
H      21.21160546      19.23353283      17.53331358 
H      22.00001174      19.61541361      19.10103502 
H      20.80001228      22.68227621      14.27463508 
H      20.60928994      21.18713752      13.30311526 
H      21.74699253      21.21690111      14.68526254 
H      22.25658446      13.44783573      20.43030740 
H      22.00859363      14.93311354      21.40324981 
H      22.54895950      15.06500823      19.69948764 
H      24.75444319      14.82921839      16.37519008 
H      23.09845673      14.25174565      15.98431954 
H      23.65883219      14.26533604      17.67483938 
H      19.97781413      10.57569762      14.73629165 
H      19.41382985      10.70972405      16.43092753 
H      21.17211218      10.67471626      16.07134824 
H      16.71435423      10.17311418      20.36987449 
H      15.33294727      11.18607014      19.83797468 
H      16.57779832      11.87434699      20.92048780 
H      14.32513735      12.04130306      10.02443140 
H      13.78498860      11.46259733      11.62651709 
H      14.37118853      10.28869415      10.39934889 
H      17.68040936       6.99892654      14.25470173 
H      17.77350450       7.09501844      16.03976408 
H      18.62623536       8.30407716      15.03488245 
H      13.17971393      19.99766641      11.00433302 
H      12.25729782      20.55551408      12.43617656 
H      11.38280787      19.97925547      10.97678229 
H      15.80358863      24.10673556      12.94497114 
H      14.91983471      23.66329644      14.44458010 
H      14.07892412      23.63483561      12.86620259 
H      18.97689792      19.40456759       9.32389930 
H      17.22722463      19.10688718       9.59254319 
H      18.40148650      17.78679352       9.86156734 
H      20.02589190      13.07661929      10.85351830 
H      19.22547609      12.92364456      12.45336734 
H      20.97347270      13.29019607      12.36541784 
H      23.21149973      17.13753477      10.50550375 
H      22.52729331      15.98567019      11.68981441 
H      24.26717171      16.43363524      11.76806441 
H      16.61789263      24.71597284      15.79720584 
H      17.79424811      23.78422113      16.76219965 
H      17.01409822      25.24279460      17.46172897 
H      15.97927662      15.13003728       8.02703729 
H      14.26916130      14.76921097       8.41728557 
H      15.58632338      13.79050627       9.14314458 
