156
Properties=species:S:1:pos:R:3 i=114 optimized=T E=-1689.2644361113 pbc="F F F" jobid=36_24-Ag-50_0-000003-PBE
Au      16.12699732      15.75965901      14.37959283 
Ag      16.00091402      18.32157896      15.80867108 
Ag      17.92319030      16.22598409      16.75048490 
Ag      16.79074776      13.87712650      18.02490596 
Au      15.03071610      15.91543654      17.21235945 
Au      17.66222706      19.02456340      18.03612247 
Ag      14.29212579      17.69947781      13.49968286 
Ag      19.13717200      18.61001350      15.47475811 
Ag      17.13622318      18.10476437      13.22311035 
Au      19.26630015      16.16636886      14.13560204 
Ag      15.13352956      13.27542682      15.63661633 
Au      13.08034502      17.91996515      16.33329404 
Ag      15.97021832      20.92952619      16.89403078 
Ag      17.28038882      21.10788298      14.26693104 
Ag      14.95980274      18.76129316      18.53210406 
Au      20.08569283      13.69938076      17.66097835 
Au      17.88495314      13.65366644      15.09411840 
Au      13.12818492      15.41787127      15.06790318 
Au      13.93230768      15.04123445      11.71647845 
Au      13.82168069      13.16385289      18.69414829 
Ag      17.26638063      15.67547110      11.48914014 
Ag      16.77595374      16.44923914      19.35728781 
Au      12.27625340      15.60054538      17.74722174 
Au      13.50616406      16.40060844      20.32597649 
Au      19.83625281      16.77164688      19.42051666 
Ag      14.05599458      20.46706257      14.64871391 
Ag      20.69099810      18.51917306      12.52135804 
Au      16.09520409      13.33861254      12.95315046 
Au      20.70976422      16.45068861      16.48694149 
Au       9.34872362      16.36227558      16.61426932 
Au      10.55269418      17.93007277      13.50911429 
Ag      23.02539839      17.36007827      14.87116835 
Ag      16.83740411      19.45159508      21.17028463 
Ag      16.23567169      22.51038569      19.35430773 
Au      16.73946412      10.40078141      17.07221107 
Ag      16.02928912      10.38764469      13.47449383 
S      16.54061419      17.12881615      21.72716181 
S      20.13599259      14.46918329      19.89103794 
S      23.09250387      18.23253672      12.65334386 
S      23.08564237      16.42339970      17.10278895 
S      18.60003550      19.53916696      11.86034895 
S      19.66498003      15.44947157      11.83600142 
S      15.29873843      16.05537564      10.09162086 
S      13.58438875      11.74116574      16.83279579 
S      14.04124460      14.15750775      20.84112515 
S      20.14805051      12.83219449      15.47717771 
S      12.34100738      18.18775441      12.01844011 
S      12.02772447      20.05965631      15.94498861 
S      12.50916009      13.94867406      13.24600883 
S      10.00835860      15.05393259      18.45802437 
S      12.90450648      18.64012037      19.94127942 
S      19.29271524      21.07448350      15.59417463 
S      19.66206920      19.11884195      19.46482120 
S      15.33764599      21.61370116      12.93749273 
S      15.43611942      23.33178925      17.24346956 
S      17.20592156      21.82298152      21.41221681 
S      17.59309188      11.66090516      18.84935678 
S      16.04557085      11.53180557      11.33632822 
S       8.58485720      17.60025229      14.77020823 
S      15.90260955       8.97216886      15.40258242 
C      16.90050667      24.24769772      16.59879475 
C      16.05279362      22.37385316      22.73738765 
C      14.89974795      23.36479954      13.29741635 
C      12.25197037      19.94891006      11.50694522 
C       8.25477835      19.26129348      15.48455578 
C      12.14567039      21.11924161      17.43827007 
C      13.20411706      19.50293455      21.53576215 
C       9.67989894      16.14341215      19.90210064 
C      12.55027112      13.51167064      21.69981141 
C      11.85617791      11.97539152      16.25872173 
C      10.78821309      14.35292568      12.75978488 
C      18.35769193      19.10497506      10.08906252 
C      15.52379269      14.76560531       8.79984875 
C      14.30507080      11.39808772      10.75638899 
C      20.09073697      11.00604391      15.63782117 
C      23.62313494      14.69215394      16.77893491 
C      21.08701631      19.76958424      18.51283172 
C      20.62270488      21.67340536      14.46943814 
C      23.39157719      16.73817654      11.61873670 
C      18.06522384      16.71312261      22.66830885 
C      21.91074200      14.43475916      20.36413206 
C      16.57135812      11.16280907      20.29257230 
C      20.01316836      13.64598515      11.84683220 
C      17.22023807       7.71395137      15.14414771 
H      11.76130762      11.46000699      15.29610994 
H      11.61920252      13.03755519      16.13197350 
H      11.18055872      11.52409013      16.99340677 
H      10.56891500      13.82396302      11.82525512 
H      10.65124800      15.43396051      12.62637222 
H      10.12652795      13.99510953      13.55768553 
H      12.70689233      12.44307662      21.88822836 
H      11.65039494      13.65019608      21.09230635 
H      12.45049972      14.04455882      22.65236586 
H       8.59545514      16.19168427      20.05228104 
H      10.09013260      17.14612620      19.75011781 
H      10.15817170      15.68987155      20.77836068 
H       7.92978003      19.91299765      14.66549801 
H       9.15457034      19.67283231      15.95359973 
H       7.44784789      19.15995799      16.21840321 
H      11.89456976      22.14292891      17.13742700 
H      13.15467808      21.10148016      17.86668299 
H      11.43075326      20.75463670      18.18365258 
H      13.16325696      20.58072431      21.33650703 
H      14.18144565      19.24233021      21.95893922 
H      12.40911619      19.22863237      22.23823505 
H      18.08762155      15.62694678      22.81292661 
H      18.02419982      17.21452677      23.64164267 
H      18.96713541      17.02185689      22.12617455 
H      16.07745377      23.46842400      22.78636393 
H      16.40467543      21.96110360      23.68985859 
H      15.02716500      22.04057264      22.55498459 
H      20.88238845      20.82256676      18.28963899 
H      21.22126115      19.21489327      17.57724604 
H      21.97993552      19.67653407      19.14105640 
H      20.57327001      22.76788808      14.43544872 
H      20.51048266      21.26903626      13.45746795 
H      21.58953102      21.36397796      14.88271599 
H      22.24003203      13.38952499      20.37339259 
H      21.99571284      14.85850368      21.37170814 
H      22.51603804      15.02219264      19.66444636 
H      24.71918965      14.68037834      16.75957915 
H      23.22980670      14.31511039      15.83081511 
H      23.25746624      14.04976426      17.58950621 
H      19.97471782      10.59526545      14.62747693 
H      19.24964247      10.68399704      16.26623887 
H      21.03972542      10.66831933      16.06946145 
H      16.81597818      10.12793184      20.55538698 
H      15.50173049      11.25578020      20.07157443 
H      16.83086548      11.82969400      21.12293582 
H      14.12680400      12.17439048      10.00263210 
H      13.59510337      11.53111370      11.57784065 
H      14.17732705      10.40687652      10.30610950 
H      16.91885290       7.07949270      14.30259095 
H      17.29654284       7.10470281      16.05184791 
H      18.18840515       8.17474145      14.92901282 
H      13.16680653      20.17889910      10.94965159 
H      12.18139999      20.61860000      12.37086887 
H      11.37642426      20.07369457      10.86035253 
H      15.65903210      24.01585033      12.84945326 
H      14.84109010      23.54733221      14.37673602 
H      13.92536545      23.57609840      12.84160585 
H      19.10007969      19.65069989       9.49595291 
H      17.34902034      19.41707523       9.79636527 
H      18.46852693      18.02758231       9.92339663 
H      20.09533532      13.31985873      10.80340902 
H      19.20908417      13.09565128      12.34777953 
H      20.95833630      13.46948931      12.37151526 
H      23.35674276      17.04544669      10.56705443 
H      22.63059064      15.97056495      11.79348761 
H      24.38690058      16.34218736      11.84715176 
H      16.69053496      24.53654051      15.56194698 
H      17.80456118      23.63046745      16.61965711 
H      17.04760539      25.14899128      17.20366765 
H      16.27420903      15.13540853       8.09093906 
H      14.57074574      14.61838545       8.27940758 
H      15.86663876      13.81959111       9.23369731 
