156
Properties=species:S:1:pos:R:3 i=110 optimized=T E=-1689.2702054177 pbc="F F F" jobid=36_24-Ag-50_0-000008-PBE
Ag      16.05252410      15.76280680      14.36125417 
Ag      16.00488098      18.46580453      15.70804745 
Ag      17.80632501      16.35812779      16.73014271 
Au      16.74635192      14.04257503      18.05344491 
Au      14.92841314      16.01268955      17.15796306 
Ag      17.72372210      19.05024920      18.01655275 
Ag      14.28877749      17.85286245      13.50721552 
Ag      19.13514469      18.57115611      15.34041894 
Ag      17.10965004      18.05254028      13.11532783 
Au      19.08121115      16.05316093      14.22048393 
Au      15.07178006      13.31042748      15.62446673 
Au      13.10412538      17.95792316      16.27511418 
Au      15.97831577      20.96666494      16.95863657 
Au      17.56036277      21.25016387      14.43621312 
Ag      14.93322547      18.84908963      18.46346777 
Ag      19.91341611      13.79760375      17.78462166 
Ag      17.83446667      13.56427882      15.23764999 
Ag      13.09806238      15.44289007      14.98243487 
Au      13.81461187      14.94031182      11.88356030 
Ag      13.86786951      13.52669167      18.82415218 
Au      17.32139733      15.54976426      11.37068221 
Au      16.62903032      16.53278131      19.35940244 
Au      12.19632682      15.71610579      17.70195151 
Ag      13.55759304      16.43852216      20.27110661 
Ag      19.64630576      16.75241927      19.34644429 
Au      14.01687299      20.74099096      14.53699190 
Au      20.49913487      18.79501811      12.31405262 
Au      16.04536956      13.26915434      13.04267640 
Ag      20.60243276      16.38856671      16.55652317 
Au       9.29521374      16.28282816      16.71188300 
Ag      10.63337708      17.82475020      13.73446948 
Au      22.85693386      17.41505127      14.92879157 
Au      16.91551493      19.60465572      21.53636470 
Ag      16.39511494      22.47207804      19.50446841 
Ag      16.48157867      10.60573834      16.61145300 
Au      16.20123190      10.15922953      13.17375140 
S      16.53312710      17.29946190      21.66850724 
S      20.09554660      14.48636429      20.08277518 
S      22.77940263      18.37666248      12.78552117 
S      23.05626725      16.49317034      17.08790583 
S      18.39683488      19.51160962      11.55523993 
S      19.58118430      15.22231659      11.96148042 
S      15.24140743      16.04410264      10.35178183 
S      13.71403550      11.87314824      17.04777184 
S      13.96630526      14.22529082      21.14851988 
S      20.19021879      12.88584489      15.56844892 
S      12.30273926      18.06142048      12.02663555 
S      12.06604842      20.07911196      15.69504514 
S      12.27588112      13.83110057      13.27403421 
S      10.03397128      15.00489725      18.55507976 
S      12.86636846      18.70811016      19.83981843 
S      19.51067011      21.00332733      15.72499112 
S      19.69118732      19.16049513      19.50944053 
S      15.65488838      21.65078734      13.09321855 
S      15.66356115      23.36864748      17.38278067 
S      17.29433705      21.91572859      21.65110077 
S      17.49367851      11.77527040      18.48513893 
S      16.23010629      11.56393716      11.27978485 
S       8.52196819      17.51406910      14.87679984 
S      16.02786170       8.79219909      15.05987933 
C      17.19719049      24.19039355      16.77924080 
C      16.06180060      22.53969353      22.86723110 
C      15.33196039      23.44977132      13.28314233 
C      12.13271382      19.80703454      11.47197413 
C       8.17232350      19.17563475      15.58498484 
C      12.01291707      21.12098727      17.20432613 
C      13.12967405      19.62982657      21.40993948 
C       9.71790812      16.11429402      19.98863375 
C      12.35437647      13.61290276      21.79308391 
C      12.00498722      11.83321369      16.38286803 
C      10.61507758      14.33824650      12.67169454 
C      18.28380501      18.80644129       9.86182264 
C      15.29046041      14.96711750       8.86355481 
C      14.52731906      11.36607430      10.61106316 
C      20.24723016      11.05983568      15.80061936 
C      23.65865012      14.78280471      16.76872181 
C      21.19864140      19.71421675      18.61908022 
C      20.89436750      21.57278702      14.65870995 
C      23.16325309      16.95962160      11.67955202 
C      17.98649402      16.63264735      22.56843568 
C      21.89705171      14.58174647      20.44828372 
C      16.61781001      11.20925907      19.99631118 
C      19.82554779      13.40573953      11.99701329 
C      17.53689282       7.73991633      15.05571912 
H      12.02031899      11.34492032      15.40275765 
H      11.60339656      12.84745896      16.28258749 
H      11.39087186      11.25565057      17.08342599 
H      10.37256988      13.74507920      11.78273964 
H      10.58113091      15.40565915      12.42463218 
H       9.89357861      14.12335668      13.46894906 
H      12.46939136      12.55469269      22.05596582 
H      11.55678540      13.71005279      21.04899152 
H      12.09267230      14.18313062      22.69174909 
H       8.63468582      16.16505279      20.14568393 
H      10.12803131      17.11473833      19.81959670 
H      10.20052377      15.67078763      20.86760662 
H       7.86721809      19.82586592      14.75676050 
H       9.05550666      19.59774795      16.07402808 
H       7.34887928      19.08652912      16.30164549 
H      11.67324094      22.12023596      16.90964145 
H      13.00252858      21.17719540      17.67147730 
H      11.30634864      20.66312972      17.90543888 
H      12.96540570      20.69504524      21.20654223 
H      14.14687362      19.48870122      21.79614894 
H      12.40017647      19.28416492      22.15095752 
H      17.94563218      15.53961785      22.50736015 
H      17.90542697      16.95746275      23.61198163 
H      18.92514228      16.99118198      22.13192527 
H      16.10779652      23.63483690      22.85550926 
H      16.34158233      22.17255211      23.86101815 
H      15.04737254      22.21090260      22.62526648 
H      21.17861721      20.80890977      18.57368260 
H      21.23497311      19.31462667      17.59913881 
H      22.07953390      19.37992951      19.17774957 
H      20.85720162      22.66546967      14.58900340 
H      20.83827418      21.12696879      13.65785751 
H      21.82820041      21.26352340      15.14384375 
H      22.30502410      13.56486665      20.47118549 
H      22.02639602      15.04728937      21.43232807 
H      22.42678357      15.17702716      19.69630571 
H      24.68051303      14.83203769      16.37801358 
H      23.00874160      14.24616170      16.06987791 
H      23.66009371      14.25577132      17.73064264 
H      20.01047801      10.58591314      14.84064969 
H      19.53214018      10.72615294      16.56023935 
H      21.26275947      10.78186517      16.10560114 
H      16.89028548      10.16101586      20.16523408 
H      15.53154536      11.30167330      19.88593365 
H      16.95427846      11.82281547      20.83907372 
H      14.36010306      12.15053411       9.86386178 
H      13.77599374      11.45781208      11.40074292 
H      14.46092397      10.38020304      10.13719185 
H      17.47033345       7.03717482      14.21758396 
H      17.55268565       7.18305230      15.99990949 
H      18.44947575       8.33572227      14.96688136 
H      12.93912515      20.01252279      10.75869502 
H      12.21081446      20.50628913      12.31301072 
H      11.16390309      19.92597123      10.97416870 
H      16.16886153      23.99335445      12.82980938 
H      15.22607894      23.72238619      14.33893991 
H      14.40541023      23.68278459      12.74546373 
H      19.01440685      19.30903730       9.21873347 
H      17.26898808      19.00623897       9.49808681 
H      18.45886520      17.72418027       9.86493655 
H      19.91209821      13.05834029      10.96135250 
H      18.98842387      12.90371114      12.49468787 
H      20.75000650      13.20364661      12.54923747 
H      23.12622868      17.32666576      10.64748615 
H      22.44109312      16.14742272      11.80996122 
H      24.17632034      16.61354652      11.91212622 
H      17.09972902      24.36623694      15.70132170 
H      18.08188262      23.57129627      16.95634837 
H      17.29751559      25.14832762      17.30221022 
H      15.98739956      15.41720510       8.14679779 
H      14.28308252      14.93922083       8.43247781 
H      15.62427794      13.95557472       9.11508640 
