156
Properties=species:S:1:pos:R:3 i=86 optimized=T E=-1662.8228398888 pbc="F F F" jobid=36_24-Ag-30_6-000009-PBE
Au      16.07393029      15.74491943      14.46082009 
Au      15.96586126      18.35333305      15.80733019 
Au      17.86688269      16.21757037      16.84592250 
Au      16.77148641      13.94742501      18.14391864 
Ag      14.87205221      15.92951660      17.26608091 
Ag      17.66954552      18.93684921      18.09556498 
Au      14.31541754      17.74873537      13.58325989 
Ag      19.04855685      18.56913756      15.50691854 
Ag      17.14488737      18.10778678      13.21025405 
Au      19.10033707      16.03907407      14.27495608 
Au      15.03765735      13.36011676      15.65439863 
Au      12.91408336      17.90963785      16.32146409 
Au      15.97554020      20.91320264      16.94711326 
Ag      17.38825338      21.13199289      14.36724264 
Au      14.86416620      18.78308981      18.40809397 
Au      20.19794691      13.67708236      17.72809936 
Au      17.80730906      13.51925260      15.24642031 
Ag      12.96309275      15.43917010      15.00535443 
Ag      14.00112692      15.06326153      11.87212438 
Au      13.69683166      13.24959763      18.80587846 
Ag      17.33314524      15.64098920      11.52781926 
Au      16.74784311      16.43740865      19.41925729 
Au      12.13302116      15.65368323      17.72316014 
Au      13.37941840      16.42846550      20.38675974 
Au      19.92364652      16.76029370      19.55003324 
Ag      14.06978108      20.55340911      14.66073253 
Au      20.61250825      18.84335818      12.02962495 
Au      16.09013964      13.33150029      13.00831814 
Au      20.61867119      16.46536579      16.61740860 
Au       9.29323972      16.16479668      16.62969280 
Au      10.62478942      17.70209464      13.54871432 
Au      22.91626045      17.53703566      14.53694973 
Ag      17.08799981      19.59132492      21.35065903 
Au      16.61130459      22.59995132      19.57036242 
Au      16.70309097      10.40183991      17.00142899 
Ag      16.13733490      10.37632648      13.41346922 
S      16.50796747      17.27232257      21.68124625 
S      20.34682806      14.45977096      19.94330415 
S      22.90878728      18.41865265      12.35987092 
S      23.03841646      16.68050129      16.72595627 
S      18.41340099      19.52872936      11.61812182 
S      19.70532629      15.40927992      12.01316139 
S      15.37688900      16.06124835      10.16197975 
S      13.57647282      11.87733355      16.89069533 
S      13.78368112      14.18574699      20.98086086 
S      20.10727216      12.80154679      15.54801332 
S      12.42670660      18.01836363      12.07364182 
S      11.96506508      20.09331686      15.80187665 
S      12.43463242      13.81354433      13.20885766 
S       9.91548844      14.95964762      18.56283118 
S      12.96084262      18.69446087      19.92238618 
S      19.39885234      20.99551495      15.69014677 
S      19.59886624      19.08758952      19.65485493 
S      15.46803434      21.67147393      13.01426566 
S      15.81350288      23.28528328      17.46358435 
S      17.48489775      21.96190808      21.64146329 
S      17.44857402      11.69919053      18.80569124 
S      16.13807963      11.60245259      11.31960943 
S       8.60605213      17.34255546      14.71755729 
S      15.98581677       8.93001452      15.31702723 
C      17.27095793      24.10627662      16.70178428 
C      16.25612727      22.53766296      22.88354818 
C      15.08974367      23.43952104      13.35926527 
C      12.31470162      19.78174486      11.57774288 
C       8.21749560      19.01443432      15.37561260 
C      11.98804866      21.12415200      17.32118665 
C      13.37630334      19.61247293      21.45648713 
C       9.55674831      16.14667788      19.92191873 
C      12.20288870      13.58757507      21.70122300 
C      11.85336603      12.03245787      16.28549074 
C      10.76219777      14.17681019      12.53605563 
C      18.05435053      18.96835794       9.90525439 
C      15.57446916      14.77134476       8.86436426 
C      14.40167638      11.42410952      10.73451468 
C      20.12266859      10.97635146      15.72979270 
C      23.65516401      14.96733268      16.46296850 
C      21.03421253      19.88051631      18.83163806 
C      20.80934972      21.46811040      14.60970995 
C      23.22281456      16.94191066      11.31071996 
C      17.89757631      16.57843725      22.66013022 
C      22.14184061      14.46109771      20.33506019 
C      16.39368611      11.17874129      20.21261606 
C      20.00589896      13.59683412      11.99353044 
C      17.35516957       7.71732840      15.11960397 
H      11.81648115      11.60967020      15.27556308 
H      11.53380448      13.08017965      16.25549655 
H      11.21291834      11.45910341      16.96523250 
H      10.64875885      13.65408636      11.57966362 
H      10.60653852      15.25332668      12.39164500 
H      10.01984550      13.80124482      13.25024982 
H      12.31640924      12.51899264      21.91836860 
H      11.36980360      13.73461374      21.00591326 
H      12.02358055      14.13684420      22.63244974 
H       8.47544142      16.14724967      20.10031039 
H       9.90015979      17.15501865      19.67416133 
H      10.08405226      15.80180831      20.81948038 
H       7.91177600      19.63911248      14.52848969 
H       9.09088149      19.45642453      15.86660574 
H       7.38518829      18.91500040      16.08083823 
H      11.67606788      22.13663619      17.03933701 
H      12.99018194      21.15479165      17.76324929 
H      11.28373113      20.70254384      18.04639418 
H      13.46901004      20.67248917      21.19151846 
H      14.31194747      19.25561754      21.90057834 
H      12.55038834      19.47621321      22.16455044 
H      17.74845485      15.49641449      22.74713882 
H      17.87395218      17.03726294      23.65525684 
H      18.86180044      16.77752908      22.17631394 
H      16.26796029      23.63314004      22.90469688 
H      16.56830017      22.14942292      23.86006066 
H      15.24722791      22.18386910      22.65419617 
H      20.81282921      20.95089431      18.75399417 
H      21.18425363      19.46641066      17.82897259 
H      21.92415378      19.72072760      19.44952925 
H      20.81436603      22.55896847      14.50522527 
H      20.73542300      20.99966066      13.61994340 
H      21.73622094      21.13907489      15.09414902 
H      22.49177391      13.42261521      20.33481990 
H      22.26487576      14.89278690      21.33531117 
H      22.70818324      15.05238621      19.60884752 
H      24.72313961      15.02378701      16.22344405 
H      23.11172114      14.46585224      15.65727183 
H      23.50949807      14.40879037      17.39514772 
H      19.96365965      10.54867218      14.73237998 
H      19.33214193      10.63247626      16.40881360 
H      21.10753587      10.67976208      16.10826108 
H      16.64263319      10.14069429      20.46015037 
H      15.32936047      11.26752680      19.96336229 
H      16.62718771      11.83349924      21.05993700 
H      14.23301368      12.14869067       9.92890140 
H      13.68444906      11.61242254      11.53963393 
H      14.27973466      10.40650350      10.34640825 
H      17.11323748       7.07520845      14.26481996 
H      17.40960844       7.10937911      16.02970116 
H      18.31618440       8.21050053      14.94916642 
H      13.23419031      20.03568836      11.03885293 
H      12.20964116      20.43640920      12.44982640 
H      11.44667570      19.88591511      10.91673713 
H      15.87524782      24.06091663      12.91392542 
H      15.02713710      23.63659624      14.43487901 
H      14.12748610      23.68340676      12.89395328 
H      18.66315531      19.56076451       9.21361980 
H      16.99015225      19.14941246       9.71697428 
H      18.26630160      17.90117604       9.77959950 
H      20.10194871      13.28876206      10.94585039 
H      19.17985393      13.05353653      12.46576937 
H      20.93530304      13.38740810      12.53398838 
H      23.18716617      17.26813296      10.26495215 
H      22.46758379      16.16858906      11.48524891 
H      24.22430082      16.56549641      11.54586640 
H      17.02937827      24.31323146      15.65231292 
H      18.15791437      23.46668038      16.75078109 
H      17.44615447      25.04715702      17.23531825 
H      16.32767714      15.11504643       8.14581587 
H      14.61506766      14.64290495       8.35014409 
H      15.89610708      13.81561522       9.29427609 
