156
Properties=species:S:1:pos:R:3 i=148 optimized=T E=-1715.7076864401 pbc="F F F" jobid=36_24-Ag-69_4-000010-PBE
Au      16.10404895      15.77838914      14.39138262 
Ag      16.02413487      18.42105852      15.78418792 
Ag      17.87041775      16.32222748      16.74855365 
Ag      16.79601755      13.99804108      18.04418201 
Ag      14.90636856      16.00454682      17.16283728 
Au      17.70342635      19.06856685      18.00773391 
Ag      14.29996380      17.79052953      13.54890904 
Ag      19.14105299      18.61215324      15.41868949 
Au      17.08272662      18.10112939      13.16949962 
Au      19.20692065      16.14145473      14.17451224 
Ag      15.08708340      13.41140060      15.65670706 
Ag      13.00764659      18.01807910      16.26454878 
Ag      16.02787633      21.02347448      16.89261196 
Au      17.45142724      21.32702225      14.36326765 
Ag      14.97999233      18.86305297      18.46091765 
Ag      19.88378717      13.79024202      17.79937506 
Ag      17.89601874      13.70270719      15.21982305 
Au      13.02917046      15.48063546      15.04520008 
Ag      14.06694213      15.21195127      11.84508104 
Ag      13.89800516      13.46753997      18.69366857 
Ag      17.32424806      15.61694892      11.48650294 
Au      16.65958339      16.48844761      19.30560451 
Au      12.12833751      15.68455138      17.65147951 
Ag      13.58006421      16.41504620      20.14196628 
Ag      19.65664257      16.76610605      19.32072145 
Ag      14.07217190      20.58853067      14.66678375 
Ag      20.59408866      18.49392324      12.56854118 
Au      16.11121567      13.34165314      13.03490862 
Ag      20.66816852      16.37901011      16.53452247 
Ag       9.33409455      16.40127379      16.92406219 
Ag      10.55639001      17.94006497      14.00303919 
Ag      22.94989629      17.32548630      14.95181913 
Au      16.72633657      19.54037684      21.39516237 
Au      16.12385598      22.59225555      19.41949573 
Ag      16.43355397      10.42281695      16.66776049 
Ag      16.08762166      10.28907998      13.25464363 
S      16.44913694      17.22938264      21.64851900 
S      20.06210686      14.50666090      20.09444912 
S      22.99592887      18.24765081      12.75342271 
S      23.06287596      16.41221432      17.17612364 
S      18.51368769      19.42740333      11.73379450 
S      19.70383580      15.30833644      11.92522505 
S      15.41408460      16.13527447      10.07069620 
S      13.78835145      11.77206105      16.96442746 
S      14.00162653      14.19966036      21.00841032 
S      20.18794927      12.86243254      15.59194534 
S      12.21994243      18.06480030      12.26861028 
S      11.97179131      20.21618522      15.80268199 
S      12.46164676      14.00999324      13.20692814 
S      10.07748630      15.06901485      18.80384247 
S      12.83912390      18.66909544      19.66774007 
S      19.45163841      21.08680953      15.57725604 
S      19.67510681      19.18981375      19.43798732 
S      15.53098874      21.65714800      13.04105761 
S      15.34465564      23.40511580      17.35841740 
S      17.04340674      21.87157416      21.45042980 
S      17.47949809      11.66432241      18.45015086 
S      16.10192093      11.67459560      11.27869852 
S       8.44124896      17.70434441      15.13822604 
S      15.90317031       8.72457236      15.04092979 
C      16.75384856      24.43157625      16.76435448 
C      15.88468205      22.46501262      22.74800239 
C      15.05735785      23.41874905      13.27722952 
C      12.11986745      19.77091093      11.59399574 
C       8.18228025      19.35846721      15.90561191 
C      11.98856655      21.29371066      17.29082977 
C      13.00138600      19.62823552      21.22962803 
C       9.88367038      16.23462589      20.21386459 
C      12.38890469      13.57210522      21.63397713 
C      12.07798779      11.72904966      16.29154780 
C      10.78652753      14.47378982      12.60979336 
C      18.38931150      18.77532581      10.02010704 
C      15.53450843      14.81554451       8.79397224 
C      14.35330722      11.56084466      10.71270224 
C      20.18289873      11.03622059      15.81942050 
C      23.63750575      14.68542006      16.87914163 
C      21.13401018      19.76301185      18.48667263 
C      20.76181525      21.64388901      14.41243940 
C      23.33502616      16.78607674      11.68529711 
C      17.94171358      16.67964410      22.56542821 
C      21.86529373      14.56343195      20.45829773 
C      16.66893710      11.12487868      20.00929496 
C      20.02084964      13.50216391      11.99322678 
C      17.40202898       7.66107174      14.90886564 
H      12.08309741      11.12147676      15.37993912 
H      11.73168867      12.74023731      16.05152898 
H      11.42157488      11.27316037      17.04069828 
H      10.56373210      13.84316995      11.74060858 
H      10.73834171      15.52882225      12.32018229 
H      10.06109875      14.27174536      13.40581898 
H      12.49480158      12.50231495      21.84893948 
H      11.58836747      13.71303547      20.89787823 
H      12.14034066      14.10436310      22.55941593 
H       8.81797563      16.28239777      20.46537329 
H      10.26090558      17.23182867      19.96664238 
H      10.44686691      15.84201113      21.06941629 
H       7.84592805      20.04465417      15.11983183 
H       9.10757873      19.74265886      16.34720594 
H       7.40368342      19.27482528      16.67137352 
H      11.95539724      22.34004033      16.96898550 
H      12.88552411      21.11547265      17.89467341 
H      11.10407651      21.05584595      17.89234451 
H      12.87428788      20.69065229      20.98915720 
H      13.98395635      19.47662335      21.69402167 
H      12.21035627      19.31002419      21.91811698 
H      17.96398331      15.58457094      22.53518450 
H      17.84694590      17.02792071      23.60010584 
H      18.85768128      17.07630189      22.11428136 
H      15.92970444      23.56005761      22.76006876 
H      16.22913930      22.06986525      23.71049080 
H      14.85955623      22.13658715      22.55578683 
H      21.00952430      20.82999873      18.27228015 
H      21.24383075      19.21338770      17.54445344 
H      22.02063684      19.60268295      19.11082431 
H      20.72159760      22.73638408      14.33798179 
H      20.63847302      21.19810689      13.41896489 
H      21.72767553      21.33931440      14.83297946 
H      22.25238772      13.53843932      20.47813438 
H      22.00238309      15.02317507      21.44402180 
H      22.40372414      15.15275454      19.70684455 
H      24.68167603      14.71330363      16.54926948 
H      23.02144465      14.17159359      16.13428745 
H      23.57145236      14.13973830      17.82819414 
H      19.93402658      10.57169827      14.85806538 
H      19.45737129      10.72522656      16.57845048 
H      21.18945794      10.72732233      16.12454413 
H      16.91786497      10.07161766      20.17978995 
H      15.58158696      11.24808089      19.95550923 
H      17.06445600      11.73517282      20.82877500 
H      14.16362222      12.37010645       9.99748503 
H      13.65246520      11.65032617      11.54779962 
H      14.22497377      10.59198415      10.21657717 
H      17.30019156       7.02083159      14.02534970 
H      17.45151284       7.03405300      15.80651413 
H      18.31907757       8.25139064      14.82974545 
H      12.96772279      19.92199078      10.91679363 
H      12.15383182      20.51918009      12.39417090 
H      11.18063450      19.86654292      11.03756085 
H      15.83657089      24.05466850      12.84243552 
H      14.92357249      23.65826123      14.33749292 
H      14.11285630      23.58164430      12.74457671 
H      19.08413873      19.35309309       9.39925175 
H      17.36235477      18.91927682       9.66690590 
H      18.64279071      17.71031583       9.97022463 
H      20.17536316      13.15831119      10.96380795 
H      19.17292690      12.97106946      12.43977897 
H      20.91764998      13.31892121      12.59433020 
H      23.30924923      17.11964763      10.64144753 
H      22.58490567      16.00131394      11.83121999 
H      24.33414208      16.40260099      11.91831767 
H      16.52359663      24.74636087      15.73958707 
H      17.69053061      23.86596332      16.76275709 
H      16.84648616      25.31426175      17.40611185 
H      16.26795490      15.13315462       8.04339476 
H      14.55588385      14.69420630       8.31568129 
H      15.85774972      13.86260350       9.22842698 
