156
Properties=species:S:1:pos:R:3 i=101 optimized=T E=-1704.3759416821 pbc="F F F" jobid=36_24-Ag-61_1-000005-PBE
Ag      16.07028574      15.80704377      14.34624695 
Au      15.99483148      18.37912528      15.77501624 
Ag      17.87441986      16.25336197      16.69836796 
Ag      16.73347644      13.94328364      17.93655650 
Ag      14.94342347      15.96881218      17.07153908 
Ag      17.67005196      18.99886582      18.02221200 
Ag      14.28621810      17.91083328      13.62881366 
Ag      19.08299254      18.63621953      15.41585615 
Ag      17.12668795      18.22527909      13.19007796 
Au      19.19587971      16.18306500      14.10397934 
Ag      15.06072231      13.32063174      15.57426047 
Ag      12.90096649      17.93225607      16.29157853 
Au      15.89594082      20.90850054      16.93115465 
Au      17.36779295      21.22157878      14.33395490 
Ag      14.84782556      18.71743799      18.37308280 
Ag      19.86308003      13.91187557      17.74432978 
Au      17.82452049      13.65854761      15.09724693 
Ag      12.99175279      15.49899919      14.98499165 
Ag      14.01752188      15.13000110      11.85308125 
Au      13.85205463      13.18817091      18.70294613 
Ag      17.26459141      15.70249055      11.53284015 
Ag      16.69352625      16.47133366      19.26545677 
Ag      12.29748936      15.58549357      17.79061197 
Ag      13.77937143      16.38862330      20.24854012 
Ag      19.66355383      16.75978423      19.26784381 
Au      13.80044634      20.73974985      14.65335367 
Ag      20.64537316      18.51026550      12.49535544 
Au      16.09880466      13.33362416      12.95167066 
Au      20.65915566      16.52770383      16.45100483 
Au       9.50249316      16.15545823      16.94543331 
Au      10.71712624      17.61582104      13.71666862 
Au      23.09588468      17.38554835      14.94623919 
Ag      17.13239158      19.66468053      21.36795923 
Ag      16.48691175      22.47151743      19.55189473 
Au      16.62353633      10.43782587      16.76374127 
Au      15.88067846      10.30393173      13.17192150 
S      16.45046223      17.37096379      21.57036072 
S      20.00200579      14.49182253      20.08709618 
S      23.05740201      18.28400394      12.78699988 
S      23.02734878      16.49807311      17.14069638 
S      18.59139161      19.41925231      11.59486090 
S      19.67022589      15.41067362      11.84262617 
S      15.33513147      16.21097990      10.14504893 
S      13.47602214      11.85157457      16.80173157 
S      14.20783562      14.08209110      20.86419802 
S      20.12977242      13.00518043      15.51347423 
S      12.36189786      17.91667718      12.06700240 
S      11.90714502      20.20051804      15.94392625 
S      12.49661236      13.84119923      13.21077752 
S      10.10060791      14.95923539      18.88018995 
S      12.89976532      18.60874590      19.88742098 
S      19.36470947      21.09871274      15.57378927 
S      19.57549275      19.16255747      19.57525906 
S      15.39114580      21.50117580      13.06288708 
S      15.55618858      23.25499156      17.47412850 
S      17.50252651      22.02096528      21.66265643 
S      17.59380559      11.65847003      18.50743995 
S      15.95955437      11.60489220      11.20474376 
S       8.76739747      17.24396098      14.99720670 
S      15.72347335       9.00805630      15.11730265 
C      16.97191996      24.16105958      16.72316017 
C      16.26429855      22.57873720      22.90880471 
C      15.08424649      23.31364619      13.07812926 
C      12.11983772      19.63684542      11.46915620 
C       8.29849387      18.92212086      15.57792499 
C      12.03644605      21.23157781      17.45643270 
C      13.26056983      19.56926831      21.41547605 
C       9.82953863      16.16957231      20.23918642 
C      12.69704607      13.52665056      21.75427324 
C      11.73211392      12.13649388      16.30967822 
C      10.80431966      14.13135132      12.55016000 
C      18.48562051      18.70375857       9.90325027 
C      15.53348785      14.96906564       8.80077660 
C      14.22609985      11.57162204      10.59583314 
C      20.17233320      11.17440533      15.65400161 
C      23.55365055      14.75086237      16.90600949 
C      21.00361598      19.92217021      18.70178768 
C      20.70611115      21.60227823      14.42205374 
C      23.43937234      16.84230924      11.70999654 
C      17.68007082      16.52505440      22.64226759 
C      21.79206386      14.52469366      20.51544685 
C      16.76238850      11.09295064      20.04228026 
C      20.00091736      13.60653044      11.89597121 
C      16.99379126       7.69542611      14.90755594 
H      11.57755294      11.60878472      15.36159428 
H      11.51826168      13.20207210      16.16403486 
H      11.07853046      11.72324357      17.08516414 
H      10.70100800      13.58296614      11.60695869 
H      10.61236111      15.19799123      12.38374503 
H      10.08355681      13.74364607      13.27964663 
H      12.77615499      12.44970223      21.94150795 
H      11.79572679      13.73274181      21.16700389 
H      12.65435024      14.06338921      22.70915067 
H       8.75584805      16.36261419      20.33566003 
H      10.37227239      17.10483953      20.06578850 
H      10.20061820      15.70847108      21.16279565 
H       7.95759698      19.49032566      14.70489670 
H       9.14774272      19.43336046      16.04299885 
H       7.47513378      18.81258986      16.29220820 
H      11.83915609      22.27479441      17.18778037 
H      13.02833838      21.14192314      17.91312233 
H      11.28067145      20.87121707      18.16344247 
H      13.30238905      20.63274567      21.15224753 
H      14.21044213      19.26431807      21.86780767 
H      12.44332426      19.39991161      22.12621902 
H      17.39832121      15.46833645      22.71037245 
H      17.64729966      16.98166972      23.63748277 
H      18.68950671      16.60363147      22.22385225 
H      16.22741880      23.67393677      22.89736616 
H      16.59824434      22.23811858      23.89558259 
H      15.26714762      22.17806012      22.70627885 
H      20.79978651      20.98955809      18.56542313 
H      21.15863722      19.45248506      17.72388944 
H      21.89514647      19.78652893      19.32407227 
H      20.68951466      22.69382407      14.32760742 
H      20.58546360      21.14210332      13.43462584 
H      21.65809767      21.28303251      14.86243693 
H      22.17912089      13.49948880      20.49908472 
H      21.89525961      14.93624128      21.52644614 
H      22.36233493      15.14764957      19.81758955 
H      24.63712878      14.73973279      16.74224037 
H      23.03732944      14.28681705      16.06055012 
H      23.31134004      14.20015507      17.82284929 
H      19.99577824      10.74995972      14.65898028 
H      19.41385091      10.80230157      16.35173206 
H      21.17185033      10.89096928      16.00465588 
H      17.01585111      10.04156803      20.21469877 
H      15.67612425      11.21792765      19.97142203 
H      17.14834525      11.70912044      20.86280275 
H      14.14392379      12.30081345       9.78079291 
H      13.52201813      11.83429997      11.39243970 
H      14.01722359      10.56562194      10.21519575 
H      16.67262300       7.04563650      14.08552747 
H      17.03522044       7.12008758      15.83942569 
H      17.97796924       8.11713739      14.68661302 
H      12.93799204      19.85271267      10.77207577 
H      12.15072046      20.35050101      12.30089539 
H      11.15877314      19.69709699      10.94722913 
H      15.89899668      23.79871005      12.52846667 
H      15.03392678      23.69914832      14.10134069 
H      14.13186802      23.49737746      12.56700544 
H      19.16943997      19.26380557       9.25507807 
H      17.45643339      18.81794339       9.54538527 
H      18.75298125      17.64126779       9.89161193 
H      20.10586680      13.26241485      10.86034258 
H      19.17904622      13.07318920      12.38689094 
H      20.92890939      13.43037353      12.45015829 
H      23.38154771      17.18781900      10.67113869 
H      22.72303534      16.02886142      11.86359757 
H      24.45724335      16.50006875      11.92489732 
H      16.76782436      24.30941722      15.65628149 
H      17.90873292      23.60603755      16.82991916 
H      17.05149700      25.13322635      17.22302772 
H      16.29419220      15.33423870       8.10093222 
H      14.57688683      14.86586476       8.27556762 
H      15.84563492      13.99540191       9.19422468 
