156
Properties=species:S:1:pos:R:3 i=74 optimized=T E=-1636.3685944581 pbc="F F F" jobid=36_24-Ag-11_1-000005-PBE
Au      16.07579324      15.82758631      14.38428054 
Au      15.98159269      18.49862546      15.75153189 
Au      17.84682781      16.29835083      16.81246179 
Ag      16.68416544      13.95900515      18.06607161 
Au      14.91855973      16.01319347      17.18741285 
Au      17.61978422      19.12058365      18.04221369 
Au      14.31074682      17.93879998      13.55026883 
Au      19.12900377      18.60360384      15.50076687 
Au      17.10406550      18.14529526      13.14151320 
Au      19.15384864      16.12859854      14.21272478 
Au      15.07187057      13.45595350      15.58716499 
Au      12.95430663      17.95504881      16.28037217 
Au      15.87868283      21.04642781      16.90662582 
Au      17.42420168      21.40267022      14.37889255 
Au      14.84673716      18.86684536      18.39732816 
Ag      19.95399204      13.79038472      17.69546897 
Ag      17.87015231      13.66843752      15.25116504 
Au      12.97667181      15.47452806      15.00719260 
Au      13.86877852      14.94703990      11.71542204 
Au      13.78430655      13.23032221      18.82376513 
Au      17.36232639      15.59561288      11.24931012 
Au      16.69694484      16.50861008      19.35906237 
Au      12.21179374      15.62996718      17.73203126 
Au      13.35277593      16.44744030      20.36725315 
Au      19.82539215      16.84438830      19.51442193 
Au      13.87960509      20.89096670      14.61611480 
Au      20.59121632      18.73396916      12.04544416 
Au      16.13694881      13.43437256      12.98673285 
Au      20.63419544      16.46099766      16.61121211 
Au       9.31020296      16.36242379      16.53121289 
Au      10.60269812      17.88083424      13.45354377 
Ag      22.70565481      17.29123209      14.60115796 
Au      16.87564281      19.32752276      21.68774286 
Au      16.45899764      22.44164545      19.76264233 
Au      16.87731638      10.40163051      17.17909431 
Au      16.28479595      10.20517560      13.58232474 
S      16.46094286      17.02173571      21.73791756 
S      20.23001861      14.56217233      19.97479010 
S      22.86095429      18.22819289      12.39185296 
S      23.04986028      16.38927334      16.83396754 
S      18.41559203      19.50418786      11.61146882 
S      19.60025767      15.33524586      11.95501679 
S      15.29843538      15.97488546      10.14778235 
S      13.78813186      11.86099985      16.90607699 
S      13.78527775      14.21175044      20.98010748 
S      20.18865519      12.85015463      15.49170922 
S      12.43941869      18.11453137      12.01093377 
S      11.98442517      20.13557944      15.80484150 
S      12.38511971      13.92744167      13.22688713 
S       9.93179433      15.10344949      18.42429602 
S      12.90077608      18.69429239      19.84344839 
S      19.41784629      21.01488139      15.56399224 
S      19.54039373      19.18940534      19.52262831 
S      15.46608470      21.86894353      13.15199368 
S      15.69650248      23.33688850      17.72303512 
S      17.30797263      21.64001918      21.79686495 
S      17.65466326      11.80762738      18.87417584 
S      16.32969634      11.44921826      11.58872018 
S       8.58914995      17.55275074      14.63853515 
S      16.15326557       8.89445012      15.52251672 
C      17.17271626      24.21219596      17.06201702 
C      16.15475753      22.28202272      23.07590529 
C      15.16643638      23.66411213      13.40276550 
C      12.34991724      19.85303815      11.43207405 
C       8.20138259      19.22334018      15.29937050 
C      11.95378558      21.14415981      17.33695430 
C      13.23970813      19.66302953      21.36319197 
C       9.57985084      16.24304963      19.82400981 
C      12.20444682      13.58219984      21.67274391 
C      12.05948423      11.91517356      16.29084942 
C      10.69175875      14.32929895      12.64825266 
C      18.06363926      18.94018101       9.90191002 
C      15.38689428      14.80307110       8.73548007 
C      14.64785071      11.19778250      10.88803453 
C      20.18032725      11.02055849      15.65949816 
C      23.53403944      14.64534046      16.49657395 
C      20.98585778      19.86373377      18.61782765 
C      20.78589511      21.47512534      14.43274938 
C      23.15892828      16.76310743      11.32029679 
C      17.89906741      16.30951228      22.62705409 
C      22.04572731      14.55172357      20.25565750 
C      16.73014958      11.32405470      20.38704239 
C      19.89431435      13.52523062      11.96073050 
C      17.52171441       7.67778812      15.35811699 
H      12.05244537      11.46593177      15.29136191 
H      11.69158275      12.94557278      16.23528036 
H      11.43948213      11.32508830      16.97498741 
H      10.49825843      13.75103215      11.73752281 
H      10.57693761      15.40232808      12.45020980 
H       9.99388980      14.02707792      13.43825190 
H      12.33204265      12.51453109      21.88618964 
H      11.37870156      13.72085844      20.96745061 
H      12.00323537      14.12411878      22.60388822 
H       8.49439065      16.27593905      19.97128528 
H       9.96872637      17.24677184      19.63065318 
H      10.06728379      15.83759234      20.71871105 
H       7.88941482      19.84768993      14.45427392 
H       9.07455859      19.66879596      15.78634111 
H       7.37366872      19.12227911      16.00977268 
H      11.64595054      22.16006940      17.06479517 
H      12.93955885      21.16174240      17.81483549 
H      11.22228734      20.69532236      18.01815576 
H      13.19938822      20.72414939      21.08845953 
H      14.23022070      19.42965907      21.77561372 
H      12.45685899      19.43538525      22.09564415 
H      17.81755081      15.21825857      22.56634060 
H      17.84484003      16.63251918      23.67265131 
H      18.84466275      16.62901251      22.17395138 
H      16.25023767      23.37359024      23.09632773 
H      16.46230163      21.86508523      24.04168991 
H      15.11890389      22.00329749      22.86366787 
H      20.79809730      20.92783747      18.43637637 
H      21.13164194      19.34497918      17.66388052 
H      21.86724068      19.73813682      19.25679497 
H      20.76779996      22.56337268      14.30352270 
H      20.69362871      20.97440570      13.46048247 
H      21.72474048      21.17368636      14.91266644 
H      22.38068497      13.50798666      20.26415071 
H      22.25169143      15.01078873      21.22934739 
H      22.56854619      15.10965661      19.47017764 
H      24.56877354      14.64610604      16.13552648 
H      22.87502028      14.17489240      15.76020921 
H      23.47359276      14.08152359      17.43528520 
H      20.02344668      10.59119168      14.66252922 
H      19.37895283      10.67861766      16.32766545 
H      21.15284695      10.70061123      16.05039650 
H      17.03082139      10.31091968      20.67473026 
H      15.64826394      11.36804809      20.21850870 
H      17.00649518      12.03203666      21.17695221 
H      14.51922294      11.90327206      10.05876205 
H      13.87266975      11.37947602      11.63799312 
H      14.58326608      10.16908998      10.51591525 
H      17.28533390       7.01647303      14.51683657 
H      17.56330270       7.09630315      16.28616507 
H      18.48189666       8.17187089      15.18579038 
H      13.24544936      20.04560574      10.83028641 
H      12.31999248      20.55240074      12.27616276 
H      11.45176704      19.96021023      10.81351204 
H      15.97933241      24.21502585      12.91613813 
H      15.12347197      23.91426871      14.46734608 
H      14.21177767      23.91538868      12.92606720 
H      18.72832207      19.48350012       9.22091390 
H      17.01829461      19.18497026       9.68193433 
H      18.21399604      17.85834045       9.80191388 
H      19.95898726      13.19539192      10.91776184 
H      19.08807619      12.99320022      12.47708955 
H      20.84086062      13.34154335      12.48072895 
H      23.17621792      17.10083214      10.27787169 
H      22.37456153      16.01015044      11.44902283 
H      24.13610179      16.34432122      11.58525094 
H      16.96736177      24.47816764      16.01838114 
H      18.06311077      23.57818297      17.10289404 
H      17.32504022      25.12081724      17.65537090 
H      16.11268885      15.19837372       8.01526235 
H      14.39460749      14.75500996       8.27264703 
H      15.69917889      13.80687350       9.06289991 
