156
Properties=species:S:1:pos:R:3 i=127 optimized=T E=-1730.806841775 pbc="F F F" jobid=36_24-Ag-80_6-000006-PBE
Au      16.07843886      15.82874986      14.43638869 
Ag      16.00646751      18.46585321      15.74990821 
Ag      17.82839695      16.34301322      16.75233611 
Ag      16.71044079      14.07823003      18.04362042 
Ag      14.88081131      16.07428489      17.13610825 
Ag      17.66595646      19.04073678      18.03550946 
Ag      14.30882539      17.79628596      13.49897401 
Ag      19.15790483      18.53975005      15.40437342 
Ag      17.15011993      18.10739647      13.17579994 
Ag      19.14468854      16.06264073      14.15749631 
Au      15.01086533      13.46757097      15.62211022 
Au      12.93648100      18.00781101      16.22712909 
Au      15.97276711      20.99654332      16.98354153 
Au      17.43986935      21.17741080      14.36311364 
Ag      14.84359458      18.84118832      18.37411546 
Ag      19.85661638      13.80356847      17.79885372 
Ag      17.77405331      13.63400603      15.24688339 
Ag      12.95661885      15.55086939      14.97100991 
Au      13.90644841      15.08434360      11.77868634 
Ag      13.85693826      13.48683438      18.69409777 
Ag      17.36778665      15.61125548      11.54820817 
Ag      16.59988514      16.58591646      19.33071037 
Ag      12.15514574      15.78136267      17.73985822 
Ag      13.67359844      16.38323434      20.23360562 
Ag      19.58578371      16.72323311      19.35919630 
Ag      14.07728711      20.57569434      14.69870933 
Au      20.60188617      18.69466528      12.27626471 
Ag      15.99163153      13.40541139      12.97651839 
Ag      20.60223271      16.38770483      16.58365316 
Ag       9.39277384      16.09391637      16.85255441 
Ag      10.73858069      17.71346917      13.92505132 
Ag      22.80763716      17.29884916      14.89524395 
Ag      17.06020988      19.81619072      21.29567182 
Ag      16.43967720      22.67386045      19.44232964 
Ag      16.55112588      10.64609570      16.66617934 
Ag      16.16797815      10.42731147      13.23741168 
S      16.42086345      17.52066551      21.61669038 
S      20.06905661      14.47038496      20.10770774 
S      22.87756504      18.25048614      12.70267400 
S      23.03218180      16.37922336      17.10675584 
S      18.48815277      19.42044841      11.55589419 
S      19.71725709      15.17721547      11.91102159 
S      15.36595017      16.14257841      10.26181799 
S      13.58088880      11.93152760      16.85398877 
S      14.09503467      14.13529609      21.01191676 
S      20.11868979      12.95087110      15.55045054 
S      12.29302418      18.17344255      12.13317590 
S      11.94640232      20.21190669      15.82315478 
S      12.36414728      13.95585741      13.15359019 
S      10.10821220      14.84045231      18.77859455 
S      12.85553377      18.61969374      19.83793267 
S      19.40581036      21.00813252      15.65479887 
S      19.56238189      19.12833036      19.61514274 
S      15.54037269      21.55119856      13.00755476 
S      15.61463873      23.39942695      17.29209748 
S      17.40731422      22.18359451      21.56310600 
S      17.54831794      11.79510385      18.52002575 
S      16.30679126      11.70105716      11.21017461 
S       8.59246323      17.32591277      14.97773090 
S      15.84730639       8.97214626      15.09327329 
C      17.09578366      24.22584664      16.57504015 
C      16.15643831      22.72373319      22.80380086 
C      15.15288742      23.33601318      13.22739764 
C      12.04246767      19.95856441      11.77017932 
C       8.19557540      18.97467515      15.69636068 
C      11.99085343      21.19825133      17.37034438 
C      13.15273816      19.52688210      21.41224521 
C       9.72985930      15.98686138      20.17267788 
C      12.50295139      13.53520756      21.71513142 
C      11.85577949      12.07072783      16.24428932 
C      10.71501025      14.37584959      12.45680300 
C      18.34317915      18.68414896       9.87715083 
C      15.54000832      14.96074916       8.86324095 
C      14.63017572      11.43793818      10.48782207 
C      20.21757352      11.12033559      15.72576764 
C      23.57454478      14.64691442      16.78795553 
C      21.04437462      19.80942458      18.76855955 
C      20.76865625      21.58908289      14.56744125 
C      23.22678033      16.79723045      11.62967526 
C      17.71848145      16.74982225      22.66544537 
C      21.87377767      14.59979790      20.44509053 
C      16.71993884      11.17501817      20.03980950 
C      19.87988474      13.34770466      11.91770912 
C      17.23199512       7.75956189      15.00539883 
H      11.80351684      11.62845106      15.24369846 
H      11.53231249      13.11713572      16.19954511 
H      11.21599886      11.51471693      16.93924763 
H      10.57454903      13.80768006      11.53047133 
H      10.62298967      15.44884058      12.25340876 
H       9.95926754      14.07488643      13.19197339 
H      12.60588199      12.46605435      21.93443245 
H      11.67590242      13.68158925      21.01086638 
H      12.30294554      14.07991249      22.64475202 
H       8.64258767      16.05402896      20.28761857 
H      10.15327798      16.98292582      20.00862439 
H      10.16555375      15.56408231      21.08599698 
H       7.87039128      19.62817372      14.87864320 
H       9.06859202      19.41844624      16.18670347 
H       7.37686052      18.85933749      16.41468324 
H      11.61447562      22.19945415      17.13009451 
H      13.01233005      21.26942592      17.76131523 
H      11.34977288      20.71836448      18.11719529 
H      13.17221942      20.60038377      21.19085002 
H      14.09852595      19.22895797      21.87731484 
H      12.32313772      19.30949550      22.09500944 
H      17.50684509      15.67709505      22.73537106 
H      17.66976641      17.20188477      23.66227137 
H      18.71647125      16.89633772      22.23754212 
H      16.12136568      23.81900837      22.80935806 
H      16.47903446      22.36696505      23.78864309 
H      15.16143225      22.32731954      22.58356331 
H      20.93308712      20.89772378      18.70975005 
H      21.14044410      19.40113554      17.75600019 
H      21.93078891      19.55332317      19.35898041 
H      20.66037445      22.66803000      14.41170230 
H      20.76232557      21.06480368      13.60353697 
H      21.71189675      21.38489894      15.08841568 
H      22.29479595      13.58855277      20.48038014 
H      22.00879283      15.08415821      21.41912562 
H      22.38361948      15.18907361      19.67356063 
H      24.60149093      14.66156092      16.40722461 
H      22.91608920      14.13807813      16.07622829 
H      23.54923501      14.10655977      17.74211795 
H      19.99604335      10.66984120      14.75110004 
H      19.50914189      10.74922775      16.47461826 
H      21.23956475      10.86010966      16.02478949 
H      16.97054339      10.11603929      20.16561631 
H      15.63321535      11.29973981      19.98054433 
H      17.10398579      11.75022679      20.88976950 
H      14.51123845      12.11924761       9.63726981 
H      13.83870876      11.64038230      11.21585094 
H      14.55864078      10.40262139      10.13716627 
H      17.05590056       7.09267378      14.15378986 
H      17.23078198       7.17287980      15.93115631 
H      18.20195855       8.25089141      14.88907903 
H      12.88503104      20.30625108      11.16212158 
H      11.98589132      20.55745921      12.68655379 
H      11.10938059      20.06264404      11.20455953 
H      15.95660742      23.93109875      12.77939717 
H      15.03664972      23.59309320      14.28640400 
H      14.21251647      23.53614165      12.69984617 
H      19.00707503      19.23464070       9.20134557 
H      17.30178732      18.80137736       9.55639841 
H      18.60774465      17.62057356       9.87691350 
H      19.67058869      12.97044265      10.91105172 
H      19.19225256      12.88783222      12.63620261 
H      20.90826061      13.10190628      12.20552847 
H      23.23793265      17.13847265      10.58839421 
H      22.46387017      16.02086915      11.75405726 
H      24.21582571      16.40976225      11.89795907 
H      16.94732678      24.33584731      15.49432407 
H      18.00488693      23.64282157      16.75037021 
H      17.18769414      25.21479507      17.03853369 
H      16.27316460      15.38260981       8.16528451 
H      14.57147053      14.86172120       8.36069655 
H      15.88913130      13.98259326       9.21184904 
