156
Properties=species:S:1:pos:R:3 i=71 optimized=T E=-1636.3688863546 pbc="F F F" jobid=36_24-Ag-11_1-000001-PBE
Ag      16.14066775      15.79472056      14.39616293 
Au      16.00148931      18.46319601      15.80042474 
Au      17.88743317      16.29186417      16.84370346 
Au      16.74701126      13.99016319      18.09466789 
Au      14.94381926      15.97346363      17.19920517 
Au      17.63419577      19.09976412      18.10612985 
Au      14.36300460      17.91743780      13.59936432 
Au      19.10528177      18.60674988      15.56422469 
Au      17.13698021      18.23153721      13.21445156 
Au      19.14076001      16.12318734      14.26702464 
Au      15.12446644      13.31767383      15.61701901 
Au      13.03892201      17.92310993      16.33281965 
Au      15.89527616      21.01886644      16.92775403 
Au      17.42621791      21.37691115      14.38232664 
Au      14.87571754      18.85744007      18.46572090 
Au      20.22409663      13.77190759      17.75216813 
Au      17.85831958      13.57298843      15.21818108 
Ag      13.10330307      15.44055377      14.99168202 
Ag      13.96856184      15.03375642      11.94524089 
Au      13.73169698      13.26522403      18.84468058 
Au      17.37741299      15.61179917      11.35120125 
Au      16.73140798      16.49527801      19.41229113 
Au      12.23089800      15.63446438      17.72855817 
Au      13.35255507      16.46644961      20.41470552 
Au      19.88940835      16.85611557      19.54191264 
Au      13.88840173      20.84385703      14.59455404 
Au      20.66176501      18.71421368      11.97100736 
Au      16.14204649      13.32812968      13.00214813 
Au      20.67523095      16.50107447      16.62438366 
Ag       9.54349488      16.30285043      16.47365962 
Au      10.60842314      17.80241221      13.45325146 
Au      22.97062860      17.38181020      14.46107177 
Au      16.88313056      19.38371726      21.69762829 
Au      16.44803950      22.46673682      19.75660844 
Au      16.79810835      10.48750795      16.96843923 
Au      16.14129172      10.26180079      13.32744684 
S      16.49009172      17.07480647      21.76532969 
S      20.33655471      14.56623656      19.96684316 
S      22.94830466      18.22073360      12.26576346 
S      23.10763122      16.60220339      16.67931541 
S      18.47752761      19.48033099      11.60052810 
S      19.62900607      15.34571832      12.02050602 
S      15.34652025      16.02446092      10.22061376 
S      13.64884895      11.89222852      16.93139562 
S      13.76025646      14.22407118      21.01491831 
S      20.17975766      12.91706485      15.56369594 
S      12.48293294      17.93405704      12.05024175 
S      12.00169732      20.06520153      15.77858713 
S      12.39842580      13.79421872      13.28060103 
S      10.00445778      14.99650042      18.46472891 
S      12.90843427      18.71289497      19.88700131 
S      19.41964480      21.01619077      15.57891634 
S      19.57028834      19.19239657      19.57665539 
S      15.47330798      21.83605349      13.14187495 
S      15.68621769      23.31743303      17.69878017 
S      17.29745242      21.69950509      21.80291944 
S      17.53107270      11.78667256      18.78010723 
S      16.06454803      11.52354618      11.33563660 
S       8.59698586      17.52735103      14.63261419 
S      16.10268534       8.98353545      15.29172339 
C      17.15508979      24.19956688      17.03048806 
C      16.13155030      22.33736502      23.07229016 
C      15.15694288      23.62866665      13.39082609 
C      12.42442914      19.62016193      11.32706700 
C       8.25460634      19.18672948      15.34967495 
C      11.95051115      21.09326243      17.29792012 
C      13.22953499      19.68663537      21.40784131 
C       9.60943854      16.18031338      19.81863956 
C      12.16020666      13.62128212      21.68726036 
C      11.91970525      11.99142588      16.33316223 
C      10.72140259      14.20508726      12.64878926 
C      18.06141225      18.90117945       9.91183083 
C      15.41051042      14.78453299       8.86509415 
C      14.30818778      11.37407608      10.81155195 
C      20.21313742      11.08967344      15.72245116 
C      23.66746114      14.86202350      16.47916320 
C      20.99780472      19.89180318      18.66206812 
C      20.79612471      21.42396151      14.43803070 
C      23.20494971      16.72572536      11.22764420 
C      17.94120607      16.38600721      22.65240559 
C      22.12927782      14.59647317      20.36842487 
C      16.49636823      11.23769970      20.19207659 
C      19.91694300      13.53434633      12.03275806 
C      17.48972085       7.79064771      15.12013283 
H      11.88332477      11.51088781      15.34932325 
H      11.58900609      13.03171627      16.24411951 
H      11.28851181      11.45100522      17.04737422 
H      10.57249950      13.69135203      11.69232534 
H      10.58723991      15.28582195      12.51428647 
H       9.98662839      13.84083212      13.37693348 
H      12.27260584      12.55495384      21.91559361 
H      11.35133054      13.75914365      20.96139732 
H      11.94604675      14.17593198      22.60779693 
H       8.52906925      16.13401597      19.99885303 
H       9.90282342      17.20236007      19.56291445 
H      10.15147000      15.87631329      20.72231730 
H       7.89575468      19.83883443      14.54523436 
H       9.15437460      19.61985881      15.79824335 
H       7.46916085      19.07216274      16.10499260 
H      11.62081433      22.09900896      17.01411776 
H      12.93558756      21.13718433      17.77545928 
H      11.23006952      20.63782619      17.98655183 
H      13.19487922      20.74680876      21.12883461 
H      14.21372501      19.45252380      21.83400571 
H      12.43672108      19.46364307      22.13094627 
H      17.86904363      15.29350351      22.60370766 
H      17.89231070      16.71914211      23.69518028 
H      18.88029288      16.71233444      22.19000722 
H      16.21527433      23.43000596      23.08657972 
H      16.43913217      21.92953211      24.04197031 
H      15.09987344      22.04595399      22.85693768 
H      20.79068402      20.95380513      18.48912652 
H      21.14108914      19.38110763      17.70348227 
H      21.88785031      19.77754538      19.29102294 
H      20.81401920      22.51145398      14.30281229 
H      20.68327610      20.92194589      13.46885207 
H      21.72616531      21.09104196      14.91421688 
H      22.49105403      13.56224401      20.39063047 
H      22.24329758      15.04981885      21.36003162 
H      22.69101958      15.17900365      19.63144223 
H      24.72701738      14.87575326      16.19953078 
H      23.07969106      14.33743157      15.72053098 
H      23.54131787      14.35509802      17.44323407 
H      20.05570847      10.67356624      14.71997078 
H      19.42546912      10.72998264      16.39666552 
H      21.20030066      10.79636988      16.09721548 
H      16.76670015      10.20328208      20.43199432 
H      15.42854667      11.30893223      19.95198654 
H      16.72486401      11.89196096      21.04121238 
H      14.14690131      12.07234974       9.98145549 
H      13.62446592      11.62275313      11.62958178 
H      14.13983538      10.34705730      10.46896484 
H      17.24768741       7.11236631      14.29398938 
H      17.56068627       7.22440460      16.05582951 
H      18.43745378       8.29779808      14.91950156 
H      13.32364118      19.74564001      10.71324165 
H      12.40463184      20.38428832      12.11275147 
H      11.52866367      19.69055035      10.69998829 
H      15.97066005      24.18609478      12.91307858 
H      15.10101928      23.87750845      14.45510675 
H      14.20524708      23.87290408      12.90456598 
H      18.70065594      19.43857710       9.20234752 
H      17.00857600      19.14443223       9.72924371 
H      18.20438141      17.81845900       9.81545450 
H      19.96666310      13.19678493      10.99136350 
H      19.11129800      13.01216263      12.56176171 
H      20.87070337      13.34787945      12.53881804 
H      23.16440487      17.04219678      10.17906292 
H      22.43176990      15.97485947      11.41847946 
H      24.19814210      16.32289090      11.45399506 
H      16.95559440      24.43825339      15.97918440 
H      18.05448193      23.58044808      17.09378855 
H      17.28759611      25.12348705      17.60479431 
H      16.14250233      15.11621182       8.11977177 
H      14.41646969      14.73519579       8.40538473 
H      15.69733396      13.79751405       9.24322287 
