156
Properties=species:S:1:pos:R:3 i=94 optimized=T E=-1674.1685555108 pbc="F F F" jobid=36_24-Ag-38_9-000009-PBE
Ag      16.09860367      15.72803245      14.38158507 
Ag      16.00406412      18.39856468      15.82714722 
Ag      17.87774103      16.17026710      16.80425944 
Au      16.66077741      13.95213030      18.09647261 
Au      14.93996274      15.92618275      17.15825699 
Ag      17.64270444      18.99288802      18.12869137 
Au      14.34792554      17.84100078      13.57452143 
Au      19.07416569      18.51324787      15.56398744 
Au      17.09021261      18.11307334      13.20032561 
Au      19.14567072      16.10922129      14.19222728 
Au      15.10861652      13.24834707      15.56317495 
Ag      13.04723378      17.94223674      16.29903438 
Ag      15.84614008      20.98962831      16.99021549 
Au      17.33745051      21.20799913      14.46574902 
Au      14.90258980      18.78710122      18.43666532 
Au      20.17738907      13.74401754      17.66083304 
Au      17.79747226      13.53101788      15.15950082 
Ag      13.12708441      15.42241010      14.97679497 
Au      13.86490526      14.91253625      11.79866990 
Au      13.71423293      13.13735363      18.75307608 
Au      17.34935439      15.57622499      11.31944504 
Ag      16.62338837      16.46796989      19.38219210 
Au      12.23866943      15.61565450      17.68453027 
Ag      13.65483714      16.31922355      20.23790007 
Ag      19.68300394      16.71794605      19.29168043 
Au      13.81026059      20.72523705      14.69670632 
Au      20.71972686      18.67007193      12.16561258 
Ag      16.07053780      13.30818365      12.89061207 
Au      20.72096686      16.45026700      16.49609803 
Ag       9.49204034      16.35583801      16.65603070 
Au      10.53780496      17.80331911      13.59627915 
Ag      22.91098422      17.33488302      14.69760700 
Ag      17.03611645      19.60593109      21.29808228 
Au      16.40529682      22.65215488      19.51592143 
Au      16.81970729      10.55631649      16.91940059 
Au      16.22842453      10.31302134      13.24569604 
S      16.52018976      17.28909370      21.70230921 
S      20.24716411      14.42734079      19.90983323 
S      23.00205868      18.17656462      12.45284214 
S      23.10681599      16.48126917      16.96169042 
S      18.54438529      19.43899225      11.73537222 
S      19.59724322      15.25031905      11.95154971 
S      15.28325918      15.99080421      10.25037742 
S      13.53613846      11.83421594      16.79123969 
S      13.89004835      14.01441364      20.94314465 
S      20.15010650      12.92918896      15.45068315 
S      12.36742274      17.99683394      12.14374326 
S      11.89535170      20.13168628      15.92968821 
S      12.36980488      13.79817134      13.21619268 
S      10.05784773      15.08999996      18.63632850 
S      12.95833767      18.61145856      19.90282894 
S      19.28158988      20.93346147      15.76134625 
S      19.57344269      19.10067900      19.67341311 
S      15.40617246      21.60382472      13.17460827 
S      15.56546069      23.43807767      17.46795331 
S      17.35516231      21.98874911      21.54926922 
S      17.56743238      11.78730598      18.77157088 
S      16.24398783      11.45459685      11.19327190 
S       8.53541106      17.52147233      14.79093975 
S      16.08822541       9.07993607      15.23634726 
C      17.01875431      24.31435570      16.75473109 
C      16.16242529      22.53356664      22.83931075 
C      15.09885583      23.40947846      13.31892825 
C      12.26701079      19.72224038      11.52793128 
C       8.17078802      19.19705431      15.45810376 
C      11.96265381      21.16799588      17.44344680 
C      13.33012470      19.54856669      21.43912291 
C       9.79416926      16.31670110      19.98402383 
C      12.25689892      13.57173364      21.66165909 
C      11.80912095      12.04424328      16.21673162 
C      10.69654465      14.22454520      12.58864536 
C      18.21273177      18.92148208      10.00711864 
C      15.36257729      14.84565633       8.81518128 
C      14.53628465      11.19234146      10.55689756 
C      20.22139314      11.10020933      15.59101186 
C      23.66697337      14.74629052      16.70887758 
C      21.01425026      19.86835649      18.82989052 
C      20.69179781      21.43128672      14.69514541 
C      23.25327202      16.66161568      11.43837597 
C      17.93821129      16.60194415      22.64919814 
C      22.03018646      14.62317288      20.31204683 
C      16.54449392      11.17060714      20.16522086 
C      19.83244925      13.43274626      11.95469056 
C      17.41975355       7.81972253      15.11150880 
H      11.73416360      11.59607447      15.21981381 
H      11.52888476      13.10263269      16.16911983 
H      11.15822306      11.51430953      16.92129212 
H      10.54828271      13.74834897      11.61334538 
H      10.55710095      15.30961432      12.50611331 
H       9.97316486      13.82092202      13.30781107 
H      12.25322715      12.49792647      21.88158462 
H      11.44267816      13.80401911      20.96589345 
H      12.13123426      14.13696457      22.59244108 
H       8.71566243      16.39675231      20.16169094 
H      10.20883595      17.29656680      19.72948900 
H      10.28974893      15.94856797      20.89050748 
H       7.80321478      19.81822593      14.63349173 
H       9.06480753      19.65600437      15.89285673 
H       7.38645063      19.09405865      16.21613557 
H      11.79623868      22.21372500      17.16458077 
H      12.92505159      21.05989495      17.95622074 
H      11.16452909      20.82326052      18.11092854 
H      13.44558635      20.60740654      21.17970760 
H      14.24288326      19.18471315      21.92334955 
H      12.47770233      19.42450530      22.11781761 
H      17.83784948      15.51140684      22.67749536 
H      17.89888486      17.00311095      23.66821382 
H      18.89368210      16.86800522      22.18327096 
H      16.14640734      23.62899702      22.86222617 
H      16.52121328      22.15259682      23.80261659 
H      15.15463672      22.15403880      22.64877255 
H      20.83551671      20.94700135      18.76186257 
H      21.14021910      19.45213798      17.82431535 
H      21.91085880      19.67481346      19.42895189 
H      20.64750864      22.51776237      14.55824845 
H      20.66293962      20.92255991      13.72364126 
H      21.61295956      21.16108628      15.22530366 
H      22.50385173      13.63504230      20.31359166 
H      22.09722813      15.06147202      21.31496480 
H      22.53261233      15.28166572      19.59366142 
H      24.76005240      14.75814919      16.62572670 
H      23.22694255      14.30526554      15.81021864 
H      23.36429265      14.15002581      17.57838072 
H      20.04878308      10.68827713      14.58921490 
H      19.45540145      10.72215986      16.28011543 
H      21.22162912      10.82145977      15.94160133 
H      16.85123794      10.14153323      20.38293567 
H      15.47633857      11.21038082      19.92226543 
H      16.74495966      11.81373126      21.02984389 
H      14.42814755      11.79473947       9.64694133 
H      13.78250434      11.50643302      11.28566148 
H      14.40648506      10.13314671      10.31030884 
H      17.16333664       7.14149257      14.28955186 
H      17.44503322       7.26399207      16.05586950 
H      18.39460704       8.27817338      14.92384721 
H      13.15925746      19.90762137      10.91917387 
H      12.23350212      20.43843597      12.35745350 
H      11.36594867      19.81052423      10.91051131 
H      15.92205251      23.93682860      12.82373478 
H      15.02703101      23.71321781      14.36829594 
H      14.15580740      23.62991078      12.80510170 
H      18.88979867      19.47626461       9.34775182 
H      17.17230847      19.18079219       9.78013241 
H      18.35657915      17.84204606       9.88002809 
H      19.80046786      13.08644635      10.91573422 
H      19.05481620      12.93327058      12.54420626 
H      20.81380198      13.22548819      12.39590657 
H      23.22703326      16.95162474      10.38187596 
H      22.47497855      15.91692636      11.63281345 
H      24.24052941      16.25292231      11.68072491 
H      16.77368296      24.58621126      15.72119710 
H      17.90942870      23.67895534      16.75596567 
H      17.20403007      25.22269174      17.33832273 
H      16.08391985      15.25353110       8.09760982 
H      14.36727859      14.80696747       8.35800937 
H      15.67601381      13.84453224       9.12819600 
