156
Properties=species:S:1:pos:R:3 i=90 optimized=T E=-1662.8281564126 pbc="F F F" jobid=36_24-Ag-30_6-000007-PBE
Au      16.12248370      15.77678656      14.42415277 
Ag      16.00891007      18.40738460      15.80817138 
Ag      17.87659919      16.22831805      16.87925600 
Au      16.56688644      13.96737596      18.11853822 
Au      14.86539160      15.99156259      17.17640721 
Au      17.63348229      19.03519796      18.12406401 
Au      14.39637654      17.81288521      13.46944163 
Ag      19.08228732      18.54217306      15.50538265 
Au      17.17022902      18.06991372      13.19166530 
Au      19.12235415      16.01340058      14.27178175 
Au      14.99954277      13.43416185      15.56313528 
Au      13.02025518      17.98559260      16.32225275 
Ag      15.99604734      21.03402459      16.95267468 
Ag      17.34044355      21.10112459      14.35853363 
Au      14.92304537      18.90235249      18.47290062 
Au      20.17113955      13.62361534      17.58561720 
Ag      17.81417671      13.53261716      15.32759973 
Au      12.94963027      15.54352639      15.02650865 
Au      13.88535690      14.99764464      11.74085195 
Au      13.65238282      13.20045511      18.76876496 
Au      17.37864547      15.60696304      11.25692109 
Au      16.53135346      16.44797844      19.41439830 
Ag      12.11997826      15.64011101      17.77203961 
Au      13.36048191      16.42100683      20.32722554 
Au      19.83912613      16.68713275      19.41212340 
Ag      14.07914492      20.57503975      14.68216095 
Au      20.74865316      18.72679209      12.17045565 
Au      16.12906338      13.40589308      12.98832226 
Au      20.66502516      16.40071269      16.52187076 
Au       9.30226952      16.14687654      16.79255519 
Ag      10.89118397      17.66799652      13.96715177 
Au      23.01837925      17.36359700      14.64027880 
Ag      16.89081768      19.58105452      21.14430603 
Ag      16.42033335      22.64052458      19.39133081 
Au      16.85263218      10.45798103      17.03068517 
Au      16.33874451      10.24743390      13.42510500 
S      16.47125123      17.26226742      21.69488017 
S      20.16022482      14.37714911      19.82468769 
S      23.03131983      18.21760093      12.45097229 
S      23.09636500      16.54353668      16.84751349 
S      18.57253238      19.51960783      11.81534835 
S      19.60746011      15.32651255      11.96883297 
S      15.31850012      15.99692935      10.15519147 
S      13.61871667      11.86659663      16.82587621 
S      13.71233998      14.16783792      20.93028815 
S      20.19873395      12.75747642      15.40673172 
S      12.41658047      18.15769968      12.13381810 
S      11.99292958      20.14214891      15.87908274 
S      12.34422374      14.01165519      13.22428806 
S       9.89218058      14.95327938      18.73090159 
S      12.91060751      18.68121788      19.83988877 
S      19.33374437      20.99913812      15.70996933 
S      19.66371062      19.03584208      19.48239803 
S      15.43478116      21.69812549      13.01394428 
S      15.67000928      23.47280590      17.26835017 
S      17.32672159      21.93388324      21.47365550 
S      17.49544890      11.82227132      18.82103366 
S      16.32840397      11.52489165      11.45095662 
S       8.65547973      17.31551866      14.86728214 
S      16.21517344       8.93108321      15.35760543 
C      17.19054716      24.27309632      16.60171538 
C      16.13556810      22.48405862      22.76510143 
C      15.08783752      23.46871298      13.37225615 
C      12.18097422      19.94058086      11.76206636 
C       8.20817773      18.98346623      15.50022019 
C      12.00138393      21.18308292      17.38963142 
C      13.21106450      19.58208782      21.41203035 
C       9.54179348      16.17099546      20.06736674 
C      12.12013205      13.60195083      21.64805235 
C      11.89713336      11.96397535      16.20135873 
C      10.68446811      14.44783808      12.57055289 
C      18.17466957      19.10579178      10.07279762 
C      15.40317797      14.80877167       8.75615905 
C      14.62702198      11.26783308      10.79951648 
C      20.24147068      10.93118800      15.60012250 
C      23.69116659      14.81682284      16.62530997 
C      21.09626507      19.70475553      18.55839888 
C      20.70692620      21.56639476      14.62358306 
C      23.26932613      16.72274342      11.40715490 
C      17.97686393      16.69349924      22.57495331 
C      21.91961021      14.34014681      20.35426430 
C      16.45240409      11.24764321      20.21974459 
C      19.89859207      13.51650165      11.91635944 
C      17.61143005       7.74315278      15.22959004 
H      11.88102751      11.50191259      15.20778832 
H      11.55692328      13.00279759      16.12719433 
H      11.25585011      11.40291945      16.89012986 
H      10.48493975      13.80085390      11.70831928 
H      10.63094510      15.49963651      12.26806533 
H       9.95050065      14.25139740      13.36099838 
H      12.21857327      12.53409955      21.87573824 
H      11.29492881      13.75536822      20.94408368 
H      11.94540837      14.16239760      22.57337999 
H       8.45722145      16.23802633      20.20705904 
H       9.95268898      17.15712427      19.83289102 
H      10.01003233      15.80227236      20.98791621 
H       7.94230026      19.60043069      14.63380344 
H       9.04628122      19.44549842      16.03229732 
H       7.34094816      18.89030600      16.16268278 
H      11.73768730      22.20389273      17.09001593 
H      12.99018317      21.17703163      17.86288468 
H      11.25871363      20.79131589      18.09295438 
H      13.22274028      20.65389515      21.18070374 
H      14.16269317      19.28912434      21.86978140 
H      12.38241921      19.35887708      22.09408900 
H      17.91129615      15.60710606      22.70223357 
H      17.99978513      17.18306495      23.55544281 
H      18.88548251      16.93947010      22.01102107 
H      16.18613208      23.57621651      22.84150419 
H      16.43780721      22.04009260      23.72058021 
H      15.10965478      22.18326360      22.53447060 
H      20.92647257      20.77826232      18.42072692 
H      21.19548648      19.21918001      17.58113040 
H      21.99342475      19.53254947      19.16326999 
H      20.62792673      22.65230151      14.49866755 
H      20.67960629      21.07632848      13.64289444 
H      21.65335965      21.32198992      15.12029366 
H      22.24727013      13.29438044      20.36985772 
H      21.97620704      14.76019833      21.36531085 
H      22.55152371      14.92471388      19.67824710 
H      24.75809059      14.85156378      16.37759396 
H      23.13345931      14.29901477      15.83952046 
H      23.54555204      14.28642170      17.57380683 
H      20.07175503      10.49936573      14.60585174 
H      19.45794829      10.58274336      16.28534979 
H      21.22887210      10.63300894      15.96934949 
H      16.78690961      10.24349864      20.50344201 
H      15.39107551      11.23370463      19.94649824 
H      16.60740068      11.94400675      21.05181803 
H      14.44932260      12.01221960      10.01456344 
H      13.87721379      11.38983368      11.58621542 
H      14.57320522      10.25832063      10.37659763 
H      17.40374344       7.07243663      14.38812244 
H      17.64608955       7.16798419      16.16186499 
H      18.56506575       8.25451008      15.07207894 
H      13.06319600      20.31041868      11.22839614 
H      12.03501112      20.53196236      12.67297679 
H      11.29359167      20.02163868      11.12274488 
H      15.88041418      24.07966993      12.92536752 
H      15.03722307      23.65465848      14.45155548 
H      14.12660190      23.73047665      12.91469425 
H      18.84808052      19.67636405       9.42365086 
H      17.13615851      19.40832417       9.89626880 
H      18.28222335      18.03017677       9.89026724 
H      19.95735464      13.21306427      10.86520349 
H      19.09390700      12.97175935      12.42182039 
H      20.84877449      13.31776251      12.42457165 
H      23.23096088      17.04320323      10.35972938 
H      22.48909207      15.97887891      11.59583831 
H      24.25852370      16.30866474      11.63085139 
H      16.99984733      24.54839130      15.55740034 
H      18.05146555      23.59769014      16.63974416 
H      17.39553809      25.17788745      17.18412764 
H      16.12103137      15.20146625       8.02650221 
H      14.40813633      14.74914662       8.30065843 
H      15.72620110      13.81877270       9.09235749 
