156
Properties=species:S:1:pos:R:3 i=102 optimized=T E=-1647.7108361473 pbc="F F F" jobid=36_24-Ag-19_4-000004-PBE
Au      16.11503231      15.80139526      14.36612962 
Au      16.00922162      18.42210922      15.75770138 
Au      17.96122983      16.31717244      16.76353027 
Au      16.83844566      13.97913297      18.02544378 
Au      15.01181059      15.96142170      17.20325655 
Au      17.69412669      19.11810717      17.96760653 
Ag      14.26536192      17.88619964      13.56111700 
Au      19.24397826      18.64565087      15.46375665 
Au      17.08900941      18.12324554      13.15011791 
Au      19.24596114      16.17273948      14.17433262 
Ag      15.16998215      13.30617339      15.63293380 
Au      13.07920320      17.92243080      16.35882799 
Au      15.84813061      20.93937208      16.88890710 
Ag      17.30980647      21.07232857      14.30060263 
Ag      14.95809730      18.75856552      18.54143044 
Ag      19.95685913      13.84599891      17.69537095 
Au      17.92210687      13.68454625      15.09157912 
Au      13.14322228      15.42013815      15.07063791 
Au      13.90621000      15.00175144      11.76157281 
Au      13.83832297      13.22213670      18.78879814 
Au      17.38030658      15.64692886      11.23379325 
Au      16.84421998      16.49794386      19.34734842 
Au      12.28627138      15.59346747      17.77088397 
Au      13.40880554      16.46628139      20.37820143 
Au      19.90362455      16.85435094      19.51416696 
Au      13.83131748      20.79514681      14.58477484 
Ag      20.58636152      18.50010820      12.54111895 
Au      16.13066984      13.40879891      12.95471276 
Au      20.74020054      16.49304449      16.57963254 
Ag       9.59733814      16.36942503      16.52587903 
Au      10.59562441      17.90340500      13.39198812 
Au      23.11134754      17.27555746      14.75377902 
Au      16.76845191      19.39252639      21.57166322 
Au      16.26426660      22.46700088      19.61028144 
Au      16.72387276      10.38800299      17.06791419 
Au      16.00756972      10.19328740      13.52376750 
S      16.51524539      17.06561549      21.69548753 
S      20.27993819      14.56866963      19.99208315 
S      23.01646040      18.28399155      12.64530408 
S      23.15670659      16.30932522      16.90839304 
S      18.50853847      19.51080789      11.76487400 
S      19.64104510      15.43022248      11.88237493 
S      15.30394253      16.02420693      10.16126550 
S      13.68547098      11.78693177      16.92955751 
S      13.92389789      14.23078360      20.94057820 
S      20.16832025      12.86741222      15.48567592 
S      12.40605112      18.10064239      11.91830339 
S      12.01166117      20.04959604      15.89561203 
S      12.48232194      13.91871436      13.28930964 
S      10.04437529      15.02383032      18.49287099 
S      12.85206079      18.69416516      19.89719980 
S      19.43165646      21.05019458      15.49193340 
S      19.57613451      19.19451814      19.50782817 
S      15.34278142      21.71586173      13.02461750 
S      15.55944157      23.28585874      17.51825209 
S      17.08599298      21.72347963      21.67319755 
S      17.62020752      11.77706946      18.72448229 
S      16.06719104      11.43171697      11.52736273 
S       8.65067666      17.57561595      14.67436667 
S      15.89311307       8.87969030      15.46439856 
C      17.06142319      24.13300289      16.87583531 
C      15.87932895      22.32228240      22.92273607 
C      15.11125185      23.52117587      13.28283356 
C      12.31747176      19.82992767      11.30748575 
C       8.27826637      19.23332005      15.37818241 
C      12.04587290      21.10151792      17.39789216 
C      13.09915607      19.62772965      21.45870688 
C       9.67464957      16.17473274      19.88059660 
C      12.37508087      13.58087083      21.68564766 
C      11.94832797      11.92140768      16.35052340 
C      10.76307579      14.32160038      12.79688806 
C      18.27996904      19.03645705      10.00663247 
C      15.36292435      14.83500833       8.76176962 
C      14.35080097      11.30261796      10.88224383 
C      20.08966627      11.03969732      15.63011805 
C      23.56811266      14.54906829      16.56821496 
C      21.02071707      19.89542185      18.62284113 
C      20.73603071      21.56954895      14.30677186 
C      23.37021527      16.91077304      11.47424902 
C      17.99828558      16.50621669      22.62250815 
C      22.09096571      14.51924726      20.29554283 
C      16.71986770      11.35754685      20.26589486 
C      19.99872669      13.63163403      11.88180791 
C      17.22352325       7.62862904      15.25162212 
H      11.88140236      11.38095355      15.39936991 
H      11.66232853      12.96817681      16.19978658 
H      11.29296217      11.45522130      17.09403518 
H      10.54482803      13.78810951      11.86461453 
H      10.62617987      15.40235765      12.65827020 
H      10.09989070      13.96501722      13.59429682 
H      12.52149930      12.51450275      21.89353220 
H      11.52655881      13.71041360      21.00512097 
H      12.19628531      14.11900772      22.62348616 
H       8.58679358      16.20169030      20.01252423 
H      10.05665958      17.18121969      19.68596982 
H      10.14970289      15.78877890      20.79041677 
H       7.89974823      19.86914950      14.56978297 
H       9.17227359      19.68925624      15.81593192 
H       7.50082039      19.11037322      16.14040013 
H      11.73299557      22.11015850      17.10528140 
H      13.04819105      21.13153643      17.83950291 
H      11.33975806      20.67732260      18.12013927 
H      12.98956148      20.69227626      21.21703889 
H      14.09851499      19.45069105      21.87735812 
H      12.32819854      19.33071857      22.17805572 
H      18.01373959      15.41085515      22.58967618 
H      17.89845506      16.85066874      23.65789660 
H      18.91940186      16.89576967      22.17382918 
H      15.93181275      23.41684812      22.94064738 
H      16.18137615      21.92112386      23.89692371 
H      14.86050258      22.00195916      22.68804692 
H      20.80845642      20.95144897      18.42193667 
H      21.19808299      19.37213603      17.67683034 
H      21.89212174      19.80175913      19.28068651 
H      20.76263740      22.66614680      14.31589253 
H      20.52898862      21.21680853      13.29045419 
H      21.70055341      21.17582624      14.64667613 
H      22.40544367      13.46906340      20.29627001 
H      22.29319017      14.96262950      21.27736644 
H      22.63784175      15.07478767      19.52572111 
H      24.63043763      14.49456340      16.30485363 
H      22.95367447      14.14060654      15.76070408 
H      23.38318352      13.97627351      17.48500787 
H      19.91006147      10.62461909      14.63137292 
H      19.28675931      10.71872103      16.30566102 
H      21.05768494      10.69025137      16.00825356 
H      16.99159622      10.33495914      20.55053671 
H      15.63636406      11.44122756      20.11969152 
H      17.04482448      12.06264592      21.03934292 
H      14.24545832      12.02005744      10.05976790 
H      13.61528567      11.53439189      11.65810471 
H      14.20252476      10.28306056      10.50890719 
H      16.93567415       6.97051957      14.42384276 
H      17.28830121       7.04923161      16.17966130 
H      18.18786022       8.09693851      15.03671673 
H      13.21232902      20.00888409      10.70034975 
H      12.29962603      20.54544814      12.13761188 
H      11.41920944      19.93816421      10.69006509 
H      15.93771375      24.04050161      12.78372984 
H      15.10083984      23.77410881      14.34787589 
H      14.16082869      23.82233094      12.82737030 
H      19.03670601      19.56407838       9.41448454 
H      17.27761802      19.34903611       9.69302772 
H      18.38326985      17.95280796       9.87386566 
H      20.06336720      13.30345692      10.83831670 
H      19.21374537      13.08019545      12.41082785 
H      20.95704185      13.47974333      12.39070828 
H      23.26565241      17.31225769      10.45941981 
H      22.67332627      16.07784917      11.60891145 
H      24.40007754      16.57140537      11.62891009 
H      16.88231864      24.38062460      15.82285542 
H      17.94456911      23.49154559      16.95107479 
H      17.20893732      25.05300374      17.45239922 
H      16.08574344      15.21425639       8.03001249 
H      14.36514510      14.79527155       8.30998150 
H      15.66665801      13.83886568       9.09780688 
