156
Properties=species:S:1:pos:R:3 i=128 optimized=T E=-1730.8000305442 pbc="F F F" jobid=36_24-Ag-80_6-000003-PBE
Ag      16.01264906      15.76951866      14.41978169 
Ag      15.93413137      18.44083870      15.80601985 
Ag      17.79191695      16.31428477      16.74703751 
Ag      16.75154964      14.01870505      18.01335488 
Ag      14.90841371      16.00704342      17.19269387 
Ag      17.65284715      19.07401699      18.04180371 
Ag      14.23966494      17.87778987      13.62318731 
Au      19.08473797      18.53655803      15.45212405 
Ag      17.03426863      18.11427615      13.21248189 
Au      19.09800522      16.12438480      14.13835264 
Ag      15.04470757      13.33892557      15.65314295 
Au      12.94372794      17.92939685      16.32542284 
Ag      15.91113292      21.02199128      16.88806010 
Ag      17.27668526      21.00387842      14.24665224 
Ag      14.91882571      18.84647362      18.45551691 
Ag      19.84124367      13.84840613      17.79318765 
Ag      17.78404462      13.63554897      15.20147048 
Au      13.00752638      15.47882424      15.09169602 
Ag      14.01714472      15.26003234      11.93061822 
Ag      13.89208534      13.35686898      18.62388809 
Ag      17.24428580      15.65184083      11.52173831 
Ag      16.63209536      16.53409610      19.35746062 
Ag      12.14573945      15.64387721      17.79842277 
Au      13.52980776      16.37163106      20.28592326 
Ag      19.60816646      16.77816817      19.29969992 
Au      13.83615248      20.75267446      14.62160917 
Ag      20.63617809      18.37698651      12.53445211 
Ag      16.01954633      13.33230683      12.99698952 
Ag      20.62960021      16.40217350      16.52108885 
Ag       9.40744090      16.27205809      16.79641586 
Au      10.47931816      17.79872987      13.71937063 
Ag      22.96070739      17.14144440      14.88316474 
Ag      16.91044246      19.72939350      21.15238921 
Ag      16.37445256      22.70683889      19.28752142 
Ag      16.54806801      10.58405886      16.51024876 
Ag      16.10436200      10.36969794      13.02323488 
S      16.55030492      17.40607954      21.67161258 
S      19.98894338      14.51914956      20.09945778 
S      23.01632861      17.95717261      12.64496893 
S      23.02783068      16.33402000      17.14621368 
S      18.59758468      19.48422610      11.85971800 
S      19.59041887      15.17695365      11.94621906 
S      15.33476568      16.27242717      10.16993560 
S      13.65244694      11.69458466      16.90053846 
S      14.03192614      14.15731457      20.91030189 
S      20.14356740      12.95291660      15.57778923 
S      12.21918968      17.86819437      12.15021642 
S      12.02827245      20.17431938      16.02985925 
S      12.55790411      13.89062968      13.31738266 
S       9.96476364      14.85453076      18.66031202 
S      12.89193677      18.60356778      19.90195499 
S      19.28932230      20.94901492      15.60807631 
S      19.61008497      19.18094261      19.56165433 
S      15.29574608      21.59390350      12.97042038 
S      15.68137162      23.49481041      17.13081777 
S      17.21307274      22.10490649      21.42834305 
S      17.47027834      11.69061139      18.44267856 
S      16.04853232      11.76479307      11.06934176 
S       8.52551935      17.61263064      15.01480400 
S      16.01092194       8.88770853      14.88138718 
C      17.23658292      24.23631874      16.47660616 
C      15.93027846      22.63975665      22.63646822 
C      15.07943427      23.40746172      13.18371689 
C      12.09851933      19.50461271      11.32803018 
C       8.30463269      19.27125705      15.77825006 
C      12.21844515      21.21158416      17.52869120 
C      13.16331725      19.43774071      21.51835053 
C       9.60855668      15.93290128      20.11282027 
C      12.46149333      13.49995728      21.60815740 
C      11.91907044      11.75954422      16.29562825 
C      10.83249134      14.16366189      12.74338103 
C      18.34517709      19.11817078      10.07609254 
C      15.43934381      15.02611604       8.81907401 
C      14.29569440      11.61125618      10.52138097 
C      20.25124903      11.13015005      15.81247234 
C      23.55223786      14.58030858      16.92905912 
C      21.07284091      19.85424816      18.67904553 
C      20.68284690      21.47368380      14.52792357 
C      23.24387431      16.43482236      11.63481951 
C      18.05748362      16.91924401      22.60698344 
C      21.78573416      14.59183281      20.49294277 
C      16.55948666      11.03280541      19.89778649 
C      19.77220135      13.35393223      12.02314334 
C      17.51460064       7.83234238      14.74783570 
H      11.84177783      11.09196480      15.43013246 
H      11.64967669      12.77720175      15.99232276 
H      11.25318748      11.41556562      17.09416228 
H      10.70472227      13.61694610      11.80167233 
H      10.62342416      15.22890962      12.59005759 
H      10.15077855      13.75861087      13.50014720 
H      12.61405228      12.43445768      21.81762982 
H      11.63287407      13.61931622      20.90114534 
H      12.24253716      14.02922661      22.54217719 
H       8.52343673      16.05323861      20.20334477 
H      10.08813531      16.91228159      20.02104986 
H       9.99412436      15.43365051      21.00961883 
H       7.97002968      19.96318674      14.99706302 
H       9.23889886      19.63785881      16.21544435 
H       7.52995748      19.18737072      16.54847681 
H      11.99715712      22.24806989      17.25053438 
H      13.23326734      21.14340648      17.94007955 
H      11.49991034      20.85397158      18.27474164 
H      13.09051488      20.51803367      21.34375113 
H      14.14748847      19.19594049      21.93501394 
H      12.37592866      19.12458755      22.21302893 
H      18.10794799      15.82536328      22.63601914 
H      17.96625413      17.31531580      23.62475165 
H      18.96711124      17.31058099      22.13798269 
H      15.92415380      23.73498109      22.67564950 
H      16.20314467      22.24378556      23.62139550 
H      14.93396194      22.27958249      22.36506724 
H      21.00407639      20.94765466      18.69656158 
H      21.09443898      19.51065644      17.63887989 
H      21.97854764      19.52787946      19.20138921 
H      20.70003434      22.57023988      14.52567524 
H      20.56050872      21.10347244      13.50412435 
H      21.61785908      21.09246046      14.95377482 
H      22.17888809      13.56966322      20.53203084 
H      21.90240450      15.06459731      21.47515085 
H      22.33432516      15.17514256      19.74413854 
H      24.60126057      14.56455851      16.61400854 
H      22.93020746      14.05741151      16.19545931 
H      23.45717229      14.07567287      17.89814683 
H      20.05432816      10.64956025      14.84688858 
H      19.52872002      10.77466380      16.55513804 
H      21.26760790      10.88424853      16.14119026 
H      16.87318278       9.99529545      20.05896679 
H      15.47570796      11.07124049      19.74022673 
H      16.82496675      11.63913020      20.77082869 
H      14.11602440      12.35735989       9.73799329 
H      13.59767833      11.78613587      11.34625284 
H      14.14275238      10.60789817      10.10916963 
H      17.39234593       7.15780008      13.89283983 
H      17.59741530       7.24061259      15.66670428 
H      18.42348788       8.42636856      14.61696765 
H      12.92464684      19.56605382      10.60989916 
H      12.18769098      20.31820293      12.05627962 
H      11.14082913      19.56644948      10.80023522 
H      15.89043618      23.90682073      12.64087881 
H      15.10626128      23.68472343      14.24379043 
H      14.11530113      23.69749489      12.75071626 
H      19.13354667      19.61806363       9.50263521 
H      17.36560604      19.51212419       9.78277848 
H      18.36978686      18.03939254       9.88615949 
H      19.83581309      12.98880997      10.99150321 
H      18.91772226      12.88834239      12.52918766 
H      20.68860354      13.11407959      12.57269524 
H      23.21039692      16.72493825      10.57831669 
H      22.45458555      15.70164679      11.83196113 
H      24.22531538      16.00468683      11.86142729 
H      17.08132769      24.47784961      15.41809570 
H      18.08163470      23.54578980      16.56286113 
H      17.44894407      25.15724827      17.03050441 
H      16.17034176      15.37891600       8.08221601 
H      14.45551005      14.94172653       8.34363498 
H      15.75441413      14.04820543       9.20117983 
