156
Properties=species:S:1:pos:R:3 i=121 optimized=T E=-1704.372283414 pbc="F F F" jobid=36_24-Ag-61_1-000002-PBE
Au      16.10730034      15.80038463      14.38613078 
Ag      16.01929708      18.44945703      15.73617915 
Ag      17.84938070      16.34262966      16.75825748 
Ag      16.76065170      14.02561199      18.03802529 
Ag      14.87503655      16.02946111      17.13047349 
Au      17.70065881      19.04993695      18.00560500 
Au      14.36274402      17.82755859      13.47029109 
Ag      19.14220365      18.58188376      15.41337358 
Au      17.13960582      18.07380222      13.12299130 
Ag      19.13337426      16.10244382      14.14852596 
Au      15.05677744      13.47042462      15.59401447 
Au      12.96281811      18.00316941      16.23108224 
Au      16.03870324      20.98625026      16.93543354 
Ag      17.40370804      21.15218976      14.29644398 
Ag      14.91668652      18.82254874      18.41529334 
Ag      19.90110359      13.80019419      17.79314715 
Ag      17.85787536      13.67838851      15.25267286 
Au      12.89829461      15.53483402      15.03164735 
Ag      13.98591845      15.16917436      11.92840222 
Ag      13.90146184      13.47169039      18.67557549 
Au      17.42822895      15.58745803      11.24652037 
Au      16.58765998      16.50266572      19.32179283 
Ag      12.10699832      15.74057087      17.74048510 
Au      13.40237488      16.43938961      20.27425514 
Ag      19.58008365      16.69811646      19.29930769 
Ag      14.13383869      20.64611736      14.65053711 
Ag      20.69925769      18.37265582      12.44428655 
Au      16.12509609      13.38241311      12.98143635 
Ag      20.63280718      16.38306414      16.51782636 
Ag       9.34975189      16.17226702      16.78280995 
Ag      10.73975604      17.78834939      14.01077088 
Ag      22.93327392      17.15066299      14.82284998 
Au      16.71740767      19.59665004      21.45502902 
Au      16.26110085      22.65642831      19.45386829 
Ag      16.60204124      10.45972099      16.70106012 
Ag      16.16164251      10.33904723      13.26374406 
S      16.47847047      17.27468747      21.66864709 
S      20.09002015      14.46278097      20.10317136 
S      23.07153230      17.96967262      12.58694968 
S      23.04950038      16.34521283      17.08517462 
S      18.63229303      19.44924682      11.81377794 
S      19.67659732      15.23954788      11.86902468 
S      15.38163302      16.07698223      10.16308341 
S      13.79066179      11.84827722      16.88189880 
S      13.92198736      14.24888372      20.97391423 
S      20.18257179      12.93737261      15.55118930 
S      12.32568463      18.09665006      12.20108911 
S      12.06100933      20.23306832      15.87170268 
S      12.34130582      13.97475264      13.26116248 
S       9.99475217      14.80122561      18.65004080 
S      12.80400070      18.65074782      19.74044148 
S      19.49141313      21.03761057      15.51003156 
S      19.62130683      19.12724095      19.48756019 
S      15.48355409      21.72166144      12.94390961 
S      15.63281711      23.38611260      17.30040456 
S      17.00985608      21.93345889      21.55011473 
S      17.54820876      11.72778955      18.50489965 
S      16.10616847      11.68103419      11.25910984 
S       8.54837995      17.54829099      15.00885802 
S      16.01251536       8.79603419      15.07299175 
C      17.14945135      24.21462865      16.66913616 
C      15.74901586      22.51734435      22.75257905 
C      15.12427688      23.49633886      13.27297630 
C      12.17016929      19.84723800      11.67389472 
C       8.27362067      19.17697407      15.82350720 
C      12.11558209      21.24337696      17.40101112 
C      12.99052201      19.58574515      21.31146510 
C       9.56911365      15.88172037      20.08240834 
C      12.34399442      13.54272268      21.60041709 
C      12.06020628      11.84005590      16.26889001 
C      10.68677897      14.43731750      12.60747760 
C      18.35396235      19.01268704      10.05248727 
C      15.38089652      14.83019823       8.81257166 
C      14.33882117      11.52180888      10.76332487 
C      20.24783084      11.10530371      15.72173112 
C      23.58496161      14.59643367      16.85887081 
C      21.08208971      19.72005691      18.55146244 
C      20.78946187      21.56145435      14.31475250 
C      23.33425302      16.45271196      11.57722574 
C      18.01001465      16.75288872      22.53706221 
C      21.89045413      14.61262867      20.45256629 
C      16.71728414      11.15873662      20.04347160 
C      19.92859503      13.42166975      11.89893604 
C      17.48643354       7.70303937      14.90753831 
H      12.03967090      11.34709117      15.29105877 
H      11.67684416      12.86146009      16.16874600 
H      11.45570215      11.27837443      16.98997491 
H      10.48904784      13.80252022      11.73527113 
H      10.64480011      15.49110734      12.31096777 
H       9.93564030      14.24163100      13.38131397 
H      12.52331294      12.48569143      21.83044847 
H      11.54755678      13.62474167      20.85195136 
H      12.06001225      14.07259807      22.51646560 
H       8.47976853      15.89502925      20.19859647 
H       9.94357452      16.90090037      19.94785043 
H      10.02640040      15.45529950      20.98308357 
H       7.97199389      19.89250906      15.04985226 
H       9.18409561      19.53899311      16.31250420 
H       7.46637210      19.07373238      16.55648168 
H      11.83448379      22.26723101      17.12806713 
H      13.12009540      21.23959852      17.84001685 
H      11.39942928      20.83338483      18.12108342 
H      12.82373144      20.64400355      21.07511304 
H      13.99479893      19.46082112      21.73638744 
H      12.23179825      19.24310461      22.02353660 
H      18.06383029      15.65951147      22.48976227 
H      17.93253928      17.08251095      23.57940391 
H      18.90374857      17.18239771      22.07144752 
H      15.78830125      23.61241202      22.77327669 
H      16.01799440      22.11859382      23.73740872 
H      14.74383992      22.18542328      22.47867437 
H      20.93881946      20.77967256      18.31434165 
H      21.21768279      19.15955978      17.61921020 
H      21.96028183      19.58734727      19.19383082 
H      20.79747258      22.65698091      14.27686235 
H      20.60593907      21.16385782      13.31082685 
H      21.75987540      21.20350722      14.67777770 
H      22.32625618      13.60775396      20.48972255 
H      22.01199506      15.09778347      21.42810073 
H      22.39703932      15.21140938      19.68649653 
H      24.62432064      14.58788576      16.51302527 
H      22.94640076      14.06413748      16.14629510 
H      23.52258533      14.09524859      17.83249265 
H      20.01944769      10.66058439      14.74602565 
H      19.53153620      10.74515325      16.46833635 
H      21.26420148      10.82558985      16.02238368 
H      17.00313641      10.11718124      20.22733307 
H      15.62762233      11.23590697      19.95941908 
H      17.06594940      11.78784719      20.87008722 
H      14.09911216      12.32255895      10.05367811 
H      13.66844714      11.59701684      11.62436906 
H      14.21567967      10.54788787      10.27569623 
H      17.35012937       7.06629250      14.02613042 
H      17.54482293       7.07393708      15.80313981 
H      18.41288110       8.27487596      14.80574200 
H      13.02439816      20.09684747      11.03526887 
H      12.15047813      20.52510274      12.53485440 
H      11.23644741      19.93720491      11.10626892 
H      15.92301272      24.10507886      12.83380979 
H      15.05145588      23.70141533      14.34683002 
H      14.17082310      23.75071910      12.79519269 
H      19.12656983      19.51175216       9.45646075 
H      17.36272808      19.37983492       9.76379065 
H      18.39931752      17.92712571       9.90325996 
H      19.93986526      13.05415034      10.86714060 
H      19.13436810      12.92597807      12.46800748 
H      20.89229641      13.22706958      12.38283231 
H      23.33043209      16.74676830      10.52130411 
H      22.54380838      15.71450697      11.74717399 
H      24.31042202      16.02640952      11.83202763 
H      17.00115798      24.40967047      15.60021811 
H      18.03347655      23.58319441      16.80098038 
H      17.27186618      25.16162799      17.20642312 
H      16.08872392      15.15379824       8.04061930 
H      14.37080231      14.78954611       8.38861350 
H      15.67455381      13.84193696       9.18348697 
