156
Properties=species:S:1:pos:R:3 i=115 optimized=T E=-1674.1632655232 pbc="F F F" jobid=36_24-Ag-38_9-000008-PBE
Au      16.11226130      15.79137413      14.39687175 
Au      16.04327557      18.37326098      15.71243339 
Ag      17.92298636      16.27644796      16.74521756 
Au      16.78800046      13.98126420      18.04496931 
Ag      14.89931098      15.95856196      17.13769376 
Au      17.71408123      19.00131771      18.01751583 
Ag      14.28038520      17.76038945      13.54807022 
Ag      19.12762094      18.63025909      15.40264098 
Ag      17.13178224      18.09248023      13.10380499 
Au      19.20371598      16.16922641      14.16373630 
Ag      15.08775352      13.32389915      15.63253205 
Au      12.90389594      17.90970200      16.21812607 
Au      16.01492867      20.95582877      16.90823430 
Au      17.41127941      21.32220630      14.32015829 
Au      14.91507529      18.77524375      18.33611795 
Au      20.11017110      13.83379033      17.80773723 
Au      17.86813921      13.68045000      15.15936977 
Au      13.01095944      15.43588547      15.03697967 
Au      13.92062686      15.01686912      11.79315906 
Ag      13.86903310      13.35219193      18.63802468 
Au      17.39023004      15.62536486      11.26254613 
Au      16.66344936      16.43182078      19.32875371 
Ag      12.13687144      15.62405269      17.71946987 
Ag      13.65472927      16.29161242      20.18334918 
Ag      19.65769544      16.81979923      19.29500662 
Ag      14.03084469      20.53380104      14.73071086 
Ag      20.49385975      18.54694151      12.52715108 
Au      16.13734013      13.39496805      12.97432219 
Ag      20.72225309      16.44618049      16.49954226 
Au       9.36791335      16.20445977      16.80104550 
Au      10.65656776      17.73175426      13.59173154 
Au      23.02725215      17.44611543      14.94529159 
Au      17.02831387      19.51451727      21.54946744 
Ag      16.55575456      22.37152265      19.51093123 
Au      16.62999682      10.34882210      16.88862657 
Au      16.04429766      10.19799690      13.34317839 
S      16.47914294      17.24141000      21.64074150 
S      20.17778510      14.55999380      20.04436649 
S      22.90768044      18.31222979      12.77041421 
S      23.15308554      16.60712916      17.14596673 
S      18.47272282      19.52178282      11.61462184 
S      19.64641711      15.33060643      11.88078380 
S      15.31261677      16.11766080      10.23677795 
S      13.57612010      11.77502505      16.82918129 
S      13.94121098      14.03869053      20.96530512 
S      20.15064726      12.95510145      15.62132473 
S      12.35652537      18.15707051      12.02606193 
S      11.93014054      20.11610988      15.89805223 
S      12.49048862      13.85104082      13.25455228 
S       9.94106175      15.02209733      18.75891834 
S      12.96477784      18.56705223      19.75117100 
S      19.43941872      21.10305317      15.49299830 
S      19.67922451      19.24866419      19.40972579 
S      15.43362291      21.67054403      13.08704622 
S      15.65588659      23.28962999      17.45823055 
S      17.55088448      21.79969110      21.61658456 
S      17.43659257      11.68850350      18.62796166 
S      16.12215372      11.52308464      11.40544464 
S       8.69088621      17.30576606      14.83697340 
S      15.88583313       8.83925825      15.24408307 
C      17.09138956      24.19641613      16.74697042 
C      16.42577947      22.51565414      22.88544018 
C      14.97454094      23.42117112      13.41277317 
C      12.17626096      19.94672434      11.65109310 
C       8.22754638      18.98042493      15.43417894 
C      12.02822815      21.12287375      17.42887184 
C      13.25905497      19.51899992      21.29412743 
C       9.69485541      16.25651753      20.10136574 
C      12.29306498      13.50146505      21.58248768 
C      11.83701258      11.94399509      16.26278235 
C      10.77733104      14.20008232      12.69776478 
C      18.39992518      18.89759417       9.88597124 
C      15.33545924      15.01703039       8.76509830 
C      14.41392176      11.40079587      10.73719151 
C      20.17562152      11.12969623      15.81150482 
C      23.79864437      14.89981062      16.90492099 
C      21.11229785      19.81327079      18.41272707 
C      20.74391437      21.63061372      14.31030409 
C      23.29977702      16.86823783      11.70203242 
C      17.81196122      16.43417806      22.60820227 
C      21.96350470      14.69782144      20.45976836 
C      16.45756868      11.18430388      20.09531405 
C      19.92437076      13.51872995      11.95119849 
C      17.24839545       7.61755500      15.06448356 
H      11.73427710      11.40527980      15.31418135 
H      11.56451947      12.99517025      16.11246651 
H      11.18143820      11.49660662      17.01808699 
H      10.60910818      13.66522425      11.75620454 
H      10.61129648      15.27651058      12.56112844 
H      10.09830767      13.81886500      13.46985610 
H      12.33146753      12.42203887      21.77010257 
H      11.50388024      13.71189050      20.85186866 
H      12.08110997      14.02604676      22.52106499 
H       8.62089636      16.42925525      20.23037254 
H      10.20685030      17.19929049      19.88481082 
H      10.10956293      15.82623770      21.02121758 
H       7.90315543      19.56267075      14.56410695 
H       9.07816323      19.47486209      15.91546096 
H       7.39465074      18.87141666      16.13728619 
H      11.72928418      22.14489324      17.16808241 
H      13.04470316      21.12525154      17.83727225 
H      11.33943556      20.70422098      18.17033404 
H      13.16138000      20.58547826      21.05865911 
H      14.25568779      19.32577433      21.70849569 
H      12.48952312      19.22973495      22.01957017 
H      17.63038776      15.35389879      22.58180924 
H      17.75183371      16.80001883      23.63930758 
H      18.79854593      16.65256552      22.18550309 
H      16.53575630      23.60577926      22.85162389 
H      16.73756590      22.14718048      23.86918442 
H      15.38181878      22.24546157      22.70510314 
H      20.96560408      20.86855506      18.15946215 
H      21.22201439      19.23099100      17.49033002 
H      22.00824315      19.69177433      19.03257429 
H      20.74591565      22.72545639      14.26304818 
H      20.57398172      21.21710333      13.30968313 
H      21.70688564      21.27568458      14.69637591 
H      22.40471456      13.69498951      20.46976860 
H      22.03538281      15.13914370      21.46108461 
H      22.49058282      15.33654693      19.74262581 
H      24.85872654      14.95773420      16.63466127 
H      23.24214346      14.36233139      16.13145493 
H      23.68985720      14.36597765      17.85657051 
H      20.04440250      10.69771521      14.81214975 
H      19.37149257      10.78123629      16.47012027 
H      21.15214133      10.84125526      16.21691960 
H      16.77011454      10.17159076      20.37383586 
H      15.38229207      11.20496148      19.88748900 
H      16.68651149      11.88535503      20.90555893 
H      14.29608032      12.17084812       9.96560900 
H      13.66795325      11.55936112      11.52138193 
H      14.29406072      10.40613078      10.29299195 
H      17.00218944       6.96190576      14.22148384 
H      17.29329703       7.03062565      15.98894860 
H      18.20984871       8.10673471      14.88719973 
H      13.06301578      20.25640281      11.08642102 
H      12.10166961      20.54544898      12.56594780 
H      11.27693032      20.08280521      11.04018845 
H      15.72549752      24.07452137      12.95440977 
H      14.90516493      23.62257022      14.48777763 
H      13.99925398      23.60177797      12.94514125 
H      19.19047762      19.38611703       9.30535639 
H      17.42054610      19.16394067       9.47211482 
H      18.52283277      17.80864338       9.84388530 
H      19.96457051      13.13973100      10.92387686 
H      19.12142698      13.02312615      12.50878589 
H      20.88213281      13.34908294      12.45605027 
H      23.21128944      17.19838147      10.66031901 
H      22.60829291      16.03860267      11.87969508 
H      24.32991025      16.55244327      11.89886563 
H      16.91050544      24.35328238      15.67695785 
H      18.02270864      23.63600543      16.86950211 
H      17.16194058      25.16358534      17.25795881 
H      16.05154267      15.43398817       8.04729577 
H      14.33044020      15.01623681       8.32791270 
H      15.63314220      13.99873550       9.03321125 
