156
Properties=species:S:1:pos:R:3 i=100 optimized=T E=-1647.715039822 pbc="F F F" jobid=36_24-Ag-19_4-000002-PBE
Au      16.08567046      15.83139764      14.44801106 
Au      16.02516720      18.44974285      15.89199574 
Au      17.92858170      16.26715653      16.85616998 
Au      16.80140462      13.93924382      18.09551663 
Au      14.97093203      15.93976122      17.25851955 
Au      17.65167213      19.11388474      18.16352277 
Au      14.40128070      17.99587078      13.67261531 
Au      19.12290731      18.61502003      15.64800249 
Ag      17.22269406      18.15767470      13.25984072 
Au      19.19861222      16.18119196      14.24684516 
Ag      15.07902693      13.38228792      15.67302553 
Au      13.09396872      17.93123439      16.48068060 
Ag      15.88863081      21.05038496      16.95278085 
Ag      17.37415540      21.08493819      14.38267007 
Au      14.94751380      18.89940126      18.60688271 
Au      20.20952954      13.71842698      17.73364185 
Au      17.85877045      13.70106210      15.18126381 
Ag      13.07171862      15.55093494      14.97125242 
Au      13.87216408      14.94767425      11.79757335 
Au      13.74108354      13.15859357      18.77980257 
Au      17.36350180      15.71797019      11.31131673 
Au      16.80475970      16.43012779      19.42743388 
Au      12.26677260      15.55469262      17.72971112 
Au      13.36988268      16.38163426      20.40224945 
Au      19.94440478      16.81296951      19.53495270 
Au      13.86271195      20.83844511      14.69266072 
Au      20.69316279      18.79716884      11.98226996 
Au      16.10655106      13.45787016      13.01034526 
Au      20.70741373      16.47076619      16.62566613 
Ag       9.63235869      16.14907885      16.39844137 
Au      10.76066161      17.75866063      13.37926953 
Au      22.99326453      17.32973880      14.38817615 
Ag      16.74233654      19.45640427      21.14548894 
Au      16.36152560      22.65182185      19.46426766 
Au      16.69291893      10.35269005      17.15911972 
Au      16.05995024      10.20103225      13.59790456 
S      16.46416980      17.10912985      21.71655170 
S      20.38072441      14.51950722      19.94324701 
S      22.96855075      18.22241668      12.21332788 
S      23.13754513      16.51733896      16.59397254 
S      18.52577750      19.65333520      11.74835441 
S      19.61778177      15.46067660      11.96271897 
S      15.27285391      16.07714833      10.26226547 
S      13.63043750      11.77414294      16.87946033 
S      13.77274937      14.12655931      20.95252505 
S      20.11323099      12.84967861      15.55177924 
S      12.62503745      18.12336807      12.00215438 
S      12.02344053      20.06015183      15.95364585 
S      12.43485254      13.82390207      13.27480200 
S      10.03353051      14.87229691      18.42140836 
S      12.93661606      18.65233475      19.95988443 
S      19.42470983      21.01047113      15.66835953 
S      19.62344712      19.14734351      19.61697128 
S      15.39681563      21.76153194      13.15621933 
S      15.71819558      23.51873843      17.37563323 
S      17.14504174      21.82454674      21.50600859 
S      17.52639624      11.73754457      18.85037377 
S      16.16119511      11.46111799      11.61857827 
S       8.74542246      17.35108574      14.51759996 
S      15.89982755       8.86388222      15.51871615 
C      17.28056276      24.27288539      16.75737344 
C      15.94459385      22.38521666      22.77966705 
C      15.21394972      23.56819424      13.43346561 
C      12.43674793      19.86952558      11.46616106 
C       8.31041497      18.98882431      15.23593429 
C      11.99515328      21.10248532      17.46254258 
C      13.18782780      19.52557586      21.55502718 
C       9.59327992      16.07364136      19.74603012 
C      12.17288769      13.51818090      21.61939189 
C      11.89478491      11.89649200      16.29402029 
C      10.73155392      14.15377197      12.67217183 
C      18.01279457      19.29351213      10.02287524 
C      15.38554492      14.95859761       8.80835780 
C      14.47989614      11.28180261      10.89811049 
C      20.02324667      11.02533618      15.70555083 
C      23.64754280      14.76446809      16.37387360 
C      21.04528123      19.90132435      18.74039009 
C      20.82408840      21.42892657      14.55665158 
C      23.17354975      16.75076504      11.13194198 
C      17.96872526      16.67628808      22.67756666 
C      22.18109675      14.52636979      20.30954012 
C      16.53302001      11.31621076      20.33331724 
C      19.88939014      13.64519064      11.96595990 
C      17.23149609       7.61133246      15.32255117 
H      11.84172852      11.37882837      15.32952532 
H      11.59223006      12.94137645      16.16498741 
H      11.24307334      11.40343538      17.02316430 
H      10.57046871      13.59366685      11.74452215 
H      10.56528932      15.22505221      12.50131479 
H      10.03786703      13.79632796      13.44332325 
H      12.28302516      12.44783508      21.82948506 
H      11.36237619      13.66948293      20.89772405 
H      11.96238482      14.05752218      22.54979704 
H       8.50821756      16.02768290      19.89508033 
H       9.89193165      17.09288919      19.48499540 
H      10.10861056      15.78274247      20.66941089 
H       7.96300278      19.63620800      14.42282698 
H       9.17251600      19.44926397      15.72936022 
H       7.49712576      18.83600204      15.95408646 
H      11.68188373      22.11086547      17.17008855 
H      12.98014372      21.13616230      17.94179698 
H      11.26901107      20.66592914      18.15745743 
H      13.21963824      20.60063444      21.34211397 
H      14.11826137      19.21337485      22.04315721 
H      12.33182577      19.29999430      22.20179688 
H      18.01260279      15.58577799      22.77638507 
H      17.87748869      17.13575113      23.66867617 
H      18.87898140      17.03321802      22.18110372 
H      16.00902470      23.47596748      22.86392359 
H      16.23378391      21.92697443      23.73276962 
H      14.91951381      22.09628549      22.53113025 
H      20.82105480      20.96504503      18.60364449 
H      21.19937710      19.42832628      17.76472947 
H      21.93176458      19.77774537      19.37244527 
H      20.83615842      22.51860837      14.43511595 
H      20.72681572      20.94470337      13.57705767 
H      21.75352870      21.09862531      15.03464061 
H      22.52809908      13.48695314      20.32621904 
H      22.32022760      14.97890865      21.29832569 
H      22.73701360      15.09959827      19.56096387 
H      24.70157798      14.75328870      16.07410004 
H      23.03250667      14.25863325      15.62423233 
H      23.52702623      14.25570620      17.33770071 
H      19.81806654      10.62508709      14.70520921 
H      19.22498315      10.71574365      16.39221078 
H      20.99440076      10.66332300      16.06180597 
H      16.80299484      10.30135327      20.64596664 
H      15.45931083      11.37857067      20.11881647 
H      16.79244033      12.03390539      21.11988063 
H      14.40263115      11.97587612      10.05280096 
H      13.70515739      11.52151227      11.63282475 
H      14.36842179      10.25044210      10.54518419 
H      16.96183796       6.96346409      14.48074119 
H      17.27284868       7.02122990      16.24517567 
H      18.20223431       8.07862567      15.13616908 
H      13.35456599      20.15528091      10.93988794 
H      12.28808162      20.53782538      12.32179213 
H      11.57994897      19.92170860      10.78497063 
H      16.05336052      24.07190661      12.94026184 
H      15.20806752      23.80321319      14.50332606 
H      14.27138196      23.89596489      12.98024430 
H      18.66620905      19.84394659       9.33745674 
H      16.97939517      19.64197758       9.91194437 
H      18.05971329      18.21827048       9.81596403 
H      19.93009707      13.30888187      10.92382506 
H      19.08451165      13.12785605      12.50034923 
H      20.84562633      13.45196703      12.46496850 
H      23.12842355      17.09698677      10.09297062 
H      22.38361472      16.01486113      11.31161678 
H      24.15868411      16.31640367      11.33405378 
H      17.11388384      24.57870874      15.71745910 
H      18.11242579      23.56267432      16.79349182 
H      17.51082581      25.15488096      17.36461657 
H      16.10851797      15.38794870       8.10506967 
H      14.39519877      14.91586877       8.34052266 
H      15.70673576      13.95444299       9.10127341 
