156
Properties=species:S:1:pos:R:3 i=104 optimized=T E=-1730.8089033235 pbc="F F F" jobid=36_24-Ag-80_6-000007-PBE
Ag      16.08931638      15.75145657      14.44552194 
Ag      15.99259408      18.40065190      15.84876042 
Au      17.83999678      16.26148938      16.79450842 
Ag      16.73146038      13.97438111      18.04166100 
Ag      14.91104021      15.96663426      17.18181112 
Au      17.63189961      19.14281279      18.10706647 
Au      14.35983450      17.82243181      13.62564819 
Ag      19.00681091      18.58905963      15.53245050 
Ag      17.09666375      18.15984462      13.21601312 
Ag      19.05908434      16.07271672      14.17982581 
Ag      15.05854417      13.33228422      15.59722920 
Ag      12.95998409      17.94267501      16.32501589 
Ag      15.96713442      21.02076676      16.84730329 
Ag      17.31956292      21.10174459      14.21317624 
Ag      14.90471932      18.87842853      18.47006235 
Ag      19.88489169      13.87863065      17.80391311 
Ag      17.81109950      13.57268920      15.25294143 
Au      13.01576061      15.45783702      15.09778246 
Ag      14.10790081      15.26601451      11.88236715 
Au      13.84917989      13.20611862      18.71113981 
Ag      17.33907521      15.71653415      11.49131019 
Ag      16.68734138      16.56837093      19.32752932 
Ag      12.17371818      15.55602986      17.76493720 
Ag      13.62612378      16.44648081      20.15741457 
Ag      19.65945587      16.89211020      19.34400362 
Ag      14.00075374      20.61258355      14.65276987 
Ag      20.83444470      18.30488378      12.24238560 
Ag      16.14368113      13.38781703      12.96026286 
Au      20.60488695      16.46911139      16.51059147 
Ag       9.38962582      16.23039671      16.99075071 
Ag      10.68004306      17.70757124      14.09687632 
Ag      22.93480546      17.16191796      14.68435109 
Au      16.74476033      19.50471245      21.47009226 
Ag      16.37802933      22.46717410      19.38033798 
Ag      16.67744170      10.66082579      16.61048507 
Ag      16.16294381      10.43936529      13.10463624 
S      16.28564726      17.22056375      21.69623884 
S      20.03975504      14.62122743      20.10395945 
S      23.19195205      17.85614138      12.41454938 
S      22.98223918      16.45090618      16.99321939 
S      18.72808866      19.39007530      11.84111439 
S      19.69624503      15.34635005      11.90484225 
S      15.42014877      16.25430213      10.11421393 
S      13.60101753      11.75892157      16.86854147 
S      14.08532417      14.17303686      20.85645386 
S      20.18108884      12.94161631      15.58832315 
S      12.29746027      17.92411853      12.31576868 
S      11.96015982      20.16254203      15.87443114 
S      12.57495312      13.94848530      13.22690929 
S      10.05073550      14.94749433      18.91157774 
S      12.79166226      18.66538489      19.72265735 
S      19.35505234      21.03686195      15.49948226 
S      19.62848435      19.31356316      19.50255193 
S      15.35513899      21.67199072      12.94696901 
S      15.60653158      23.42629396      17.31136649 
S      17.24817678      21.79820920      21.50609732 
S      17.60788562      11.71794813      18.55515381 
S      16.17978748      11.75259665      11.09408264 
S       8.51990219      17.46439841      15.14522320 
S      15.98017282       9.01396861      14.99991271 
C      17.11681215      24.26316264      16.66436358 
C      16.10034890      22.52258950      22.74839324 
C      15.05640787      23.45582141      13.29052899 
C      12.10869030      19.61771713      11.63434849 
C       8.20186184      19.13394594      15.85434067 
C      11.95285478      21.25768368      17.34829593 
C      12.97010761      19.60599380      21.29502438 
C       9.80731822      16.15303176      20.28390386 
C      12.54785032      13.58868316      21.67828111 
C      11.86300227      11.92341916      16.30252985 
C      10.88644589      14.29188401      12.58335836 
C      18.32747317      19.11397616      10.06882286 
C      15.57270297      14.97772031       8.79665971 
C      14.43561265      11.60189623      10.51735029 
C      20.30784424      11.11721580      15.79381294 
C      23.49319837      14.68743389      16.85695396 
C      21.04351388      19.90284621      18.49364740 
C      20.69543091      21.50613150      14.32874198 
C      23.41431160      16.27058333      11.50461839 
C      17.66080745      16.53723963      22.70625467 
C      21.83662664      14.70297576      20.49584690 
C      16.67818348      11.03021837      19.98453722 
C      19.96254456      13.52685807      11.90009940 
C      17.39277800       7.83874683      14.87042109 
H      11.76464955      11.32461752      15.38967826 
H      11.61933049      12.96821907      16.07815542 
H      11.19919239      11.53392097      17.08156343 
H      10.73787224      13.66770371      11.69405499 
H      10.76334392      15.34740960      12.31763271 
H      10.15649870      14.01464166      13.35234324 
H      12.65338451      12.51970235      21.89565193 
H      11.67393956      13.75061798      21.03648110 
H      12.43778633      14.14477237      22.61655899 
H       8.73237583      16.29081401      20.44384454 
H      10.28241916      17.11567301      20.06882357 
H      10.25603113      15.73145746      21.19171868 
H       7.86328473      19.78565709      15.04065716 
H       9.10737041      19.55743029      16.30150632 
H       7.41036612      19.05197377      16.60697528 
H      11.78682247      22.28707902      17.01249652 
H      12.90133109      21.19216314      17.89334101 
H      11.13962316      20.94073924      18.01036097 
H      12.77033280      20.66187266      21.07671213 
H      13.97957906      19.50358366      21.71252300 
H      12.22927180      19.23422958      22.01170358 
H      17.52926924      15.44962609      22.74025612 
H      17.59297907      16.95492971      23.71648227 
H      18.63387717      16.77079916      22.26104820 
H      16.23239087      23.61072395      22.73028194 
H      16.37452036      22.13799707      23.73721259 
H      15.05706985      22.27539657      22.53336700 
H      20.85165032      20.93723063      18.18954439 
H      21.18839156      19.28273428      17.60199402 
H      21.93609364      19.85317283      19.12827908 
H      20.73113114      22.60043594      14.27551872 
H      20.52251774      21.09543819      13.32858906 
H      21.64578986      21.12857246      14.72327843 
H      22.23332393      13.68198660      20.53613240 
H      21.95524239      15.17741670      21.47702321 
H      22.38518872      15.28548441      19.74678349 
H      24.56623475      14.66378085      16.63547837 
H      22.93267560      14.16462793      16.07576588 
H      23.30478149      14.19619568      17.81913760 
H      20.08852819      10.64484769      14.82913530 
H      19.61048700      10.74711688      16.55337495 
H      21.33508830      10.87683195      16.09156179 
H      16.93862419       9.97176738      20.09430384 
H      15.59677137      11.13897128      19.84229075 
H      16.98330744      11.58181242      20.88099698 
H      14.28556935      12.31177114       9.69511832 
H      13.72405082      11.82867960      11.31765052 
H      14.27366781      10.58234648      10.15092333 
H      17.20614271       7.16273102      14.02831729 
H      17.43832466       7.25723465      15.79833995 
H      18.34449305       8.35579212      14.71922107 
H      12.96344063      19.82475391      10.98123091 
H      12.06955451      20.36647532      12.43338715 
H      11.17937661      19.64128897      11.05324241 
H      15.85013737      24.04288406      12.81492418 
H      15.03823655      23.65645850      14.36784631 
H      14.08914739      23.73118853      12.85429126 
H      19.07878016      19.63107113       9.46186426 
H      17.33703525      19.54001950       9.87406797 
H      18.31675335      18.04621627       9.82346544 
H      19.88529777      13.16628521      10.86868078 
H      19.22219948      13.01944123      12.52979784 
H      20.96235940      13.32296459      12.29894059 
H      23.45295634      16.50127257      10.43373322 
H      22.58473733      15.58185546      11.69489835 
H      24.36246703      15.81671776      11.81209768 
H      16.89491684      24.62368717      15.65276334 
H      17.97171464      23.58037514      16.61901157 
H      17.35205903      25.11662946      17.30940879 
H      16.30543617      15.32910458       8.06084631 
H      14.59786481      14.85872268       8.31019205 
H      15.90455718      14.01668147       9.20624742 
