156
Properties=species:S:1:pos:R:3 i=120 optimized=T E=-1730.8078771959 pbc="F F F" jobid=36_24-Ag-80_6-000010-PBE
Ag      16.08972173      15.79008755      14.35837907 
Ag      16.00016222      18.45592657      15.75829998 
Ag      17.86492427      16.32065204      16.71711770 
Ag      16.75157125      14.01117872      18.00700729 
Au      14.93309148      16.03023142      17.11052233 
Ag      17.70642696      19.09243487      18.03300665 
Ag      14.31972027      17.85096061      13.45971647 
Ag      19.11289568      18.58341268      15.41107554 
Au      17.08247575      18.16448222      13.18042568 
Au      19.16736712      16.11733948      14.16711649 
Ag      15.07555723      13.38089230      15.64517720 
Ag      13.06835818      18.01987169      16.24937245 
Ag      15.94767743      21.01481511      16.88532166 
Ag      17.29288172      21.09475132      14.28062818 
Ag      14.94764679      18.85411376      18.41133840 
Ag      19.86531192      13.83283009      17.77266362 
Ag      17.85770973      13.64149523      15.17592470 
Ag      13.11447955      15.52022263      14.97912891 
Au      13.92502648      15.07598423      11.80133604 
Ag      13.90116935      13.41180780      18.70963584 
Ag      17.29340898      15.64260325      11.55253883 
Au      16.64926166      16.53848732      19.27764115 
Ag      12.23234662      15.66843290      17.69356410 
Ag      13.64041543      16.38229685      20.18640002 
Ag      19.65780693      16.84014203      19.29459300 
Ag      13.99704244      20.61005290      14.64213943 
Ag      20.70754237      18.38570430      12.53318240 
Au      16.06131339      13.31626693      13.03460286 
Ag      20.66866596      16.40232709      16.51359199 
Ag       9.42858408      16.23487621      16.81596008 
Ag      10.58741525      17.85765378      13.93608892 
Ag      22.99921624      17.26595082      14.93479554 
Au      16.90519362      19.59771563      21.40491891 
Ag      16.45469324      22.52823447      19.37060028 
Ag      16.48027314      10.48776566      16.61741412 
Ag      16.10015874      10.30619119      13.19474570 
S      16.49546878      17.30109811      21.60603799 
S      19.98897771      14.56306607      20.06357812 
S      23.10037877      18.07095537      12.69305184 
S      23.05503476      16.42868945      17.18856974 
S      18.64835703      19.41580178      11.78294947 
S      19.67811560      15.30373728      11.91199090 
S      15.31594558      16.12734757      10.20927132 
S      13.67174924      11.79882377      16.92837527 
S      14.06645478      14.15487009      21.00801156 
S      20.19145340      12.91158287      15.56888467 
S      12.22394143      18.13486702      12.20111612 
S      11.91028252      20.15188700      15.79800734 
S      12.39024735      13.95465259      13.20024639 
S      10.11184449      14.89899748      18.68984486 
S      12.85829940      18.61943914      19.73082044 
S      19.32835825      21.03207391      15.58321343 
S      19.74161511      19.25016902      19.43269597 
S      15.36723515      21.70202942      12.96769622 
S      15.65500494      23.44299304      17.29931525 
S      17.35837634      21.89815493      21.49200206 
S      17.50210962      11.70263626      18.42473779 
S      16.14464074      11.68581841      11.21490474 
S       8.47940017      17.52001517      15.04765870 
S      15.88194996       8.79040913      15.01841782 
C      17.16152261      24.25509822      16.61472979 
C      16.17231057      22.56926186      22.72905135 
C      15.03289470      23.47343157      13.34004117 
C      12.02196186      19.89009027      11.68842813 
C       8.15325542      19.15115676      15.83855357 
C      11.90627293      21.20526641      17.30411733 
C      13.05258129      19.55074890      21.30673767 
C       9.79651118      16.03664335      20.10633261 
C      12.46937503      13.53770032      21.68467256 
C      11.94166520      11.86353102      16.31065750 
C      10.72576774      14.41965266      12.57407608 
C      18.42387583      18.86342551      10.04558594 
C      15.49599513      14.89897519       8.85275688 
C      14.41559213      11.53441667      10.60057142 
C      20.23943283      11.08572573      15.80089365 
C      23.62801221      14.69239719      16.94692248 
C      21.20861787      19.78715478      18.46895218 
C      20.66018656      21.60332817      14.44648244 
C      23.38215214      16.53846846      11.71079586 
C      17.92632056      16.64857826      22.55052351 
C      21.78274578      14.59929035      20.47535991 
C      16.69027771      11.12110446      19.96796014 
C      19.96740827      13.49195977      11.96006698 
C      17.34987630       7.68231700      14.90430651 
H      11.88831221      11.27825579      15.38609764 
H      11.63486519      12.89468468      16.10250996 
H      11.28489509      11.42607970      17.07037473 
H      10.53273994      13.85496777      11.65500827 
H      10.65590617      15.49411141      12.37116458 
H       9.99232794      14.13986096      13.33954124 
H      12.58423529      12.47294222      21.91893374 
H      11.65403429      13.66216429      20.96308577 
H      12.24115337      14.08926984      22.60376464 
H       8.71392370      16.14170333      20.23604068 
H      10.25454422      17.01855527      19.94914419 
H      10.22816691      15.58472471      21.00745069 
H       7.78044109      19.83091273      15.06370735 
H       9.06445813      19.57071823      16.27766873 
H       7.38526598      19.02318219      16.60878998 
H      11.71339994      22.24042052      17.00190697 
H      12.86560669      21.14222499      17.83047886 
H      11.11248784      20.85209631      17.97142036 
H      12.84449833      20.60729421      21.09950331 
H      14.06805751      19.45171848      21.70905419 
H      12.32527023      19.17175521      22.03334267 
H      17.86854120      15.55474158      22.52654358 
H      17.83899112      17.01063154      23.58112408 
H      18.87516225      16.97568597      22.11155515 
H      16.26858532      23.66124046      22.72354336 
H      16.44843580      22.18304818      23.71660851 
H      15.14057838      22.28974212      22.49887482 
H      21.20151120      20.88223829      18.43077640 
H      21.18317400      19.39577965      17.44527848 
H      22.11163625      19.43494956      18.97910502 
H      20.61569076      22.69713125      14.39086280 
H      20.54718283      21.18026963      13.44224295 
H      21.62562841      21.29799309      14.86630541 
H      22.15887196      13.57049179      20.50498500 
H      21.89792413      15.05728002      21.46472948 
H      22.34729434      15.18376448      19.73951448 
H      24.67951713      14.70776865      16.64032070 
H      23.02637834      14.16429335      16.20027575 
H      23.53821343      14.16947379      17.90675614 
H      20.01093930      10.61192896      14.83903003 
H      19.51802324      10.75524121      16.55561130 
H      21.25229619      10.80659172      16.11361320 
H      16.95347643      10.06848993      20.11994542 
H      15.60145023      11.22968014      19.91085784 
H      17.07270343      11.72240241      20.80020600 
H      14.21437022      12.36241016       9.91054628 
H      13.69188851      11.57363355      11.41981445 
H      14.33117511      10.57913528      10.06977582 
H      17.22355593       7.02548282      14.03625827 
H      17.38809596       7.07453179      15.81557889 
H      18.28264944       8.24423031      14.80465622 
H      12.88170516      20.16937365      11.06973180 
H      11.96642571      20.56179588      12.55246219 
H      11.10019704      19.96617316      11.10052079 
H      15.82097478      24.08143307      12.88137181 
H      15.00234048      23.65676209      14.42034329 
H      14.06520458      23.74083946      12.89979815 
H      19.15634926      19.39668570       9.42837455 
H      17.40830699      19.12563055       9.72921486 
H      18.57095575      17.78182606       9.94774786 
H      20.15015776      13.16387368      10.93010375 
H      19.09634812      12.96717870      12.36839708 
H      20.84093338      13.28569629      12.58737200 
H      23.36764454      16.81213693      10.64950315 
H      22.60316672      15.79253372      11.90065585 
H      24.36599791      16.13098097      11.96670597 
H      16.93491263      24.57929251      15.59195608 
H      18.01493676      23.56929152      16.59048798 
H      17.39993535      25.13057968      17.22824671 
H      16.21420255      15.30859069       8.13226326 
H      14.52492413      14.76461303       8.36308866 
H      15.86704825      13.93861941       9.22857304 
