156
Properties=species:S:1:pos:R:3 i=136 optimized=T E=-1689.274624276 pbc="F F F" jobid=36_24-Ag-50_0-000007-PBE
Ag      16.02028746      15.70149487      14.40533392 
Ag      15.92410427      18.42470705      15.72467524 
Au      17.75091803      16.31033065      16.72722299 
Ag      16.81869476      14.00114268      18.02882181 
Ag      14.89025496      15.98315852      17.19429468 
Ag      17.65212632      19.07079763      18.04500084 
Au      14.27601925      17.74489213      13.53454653 
Au      19.01492657      18.55406135      15.40824001 
Ag      17.04388601      18.07910701      13.13262142 
Au      19.07025758      16.07032848      14.19549416 
Au      15.09297201      13.21448315      15.63654156 
Ag      12.83864956      17.96781658      16.17182812 
Au      15.88461524      20.97724922      16.94409471 
Ag      17.22320064      21.07066789      14.27830671 
Au      14.84350344      18.80644396      18.32555316 
Au      20.00619282      13.84635808      17.80749104 
Au      17.77799659      13.51047051      15.20228719 
Au      13.04441522      15.38999224      15.08624662 
Au      14.07216241      15.05701642      11.75274049 
Ag      13.86482477      13.40933816      18.62068211 
Ag      17.41415636      15.57732381      11.52186376 
Ag      16.74200702      16.58322972      19.31835273 
Au      12.12533302      15.66270765      17.68394870 
Ag      13.69254965      16.28778907      20.17889425 
Au      19.78912607      16.98818641      19.52293641 
Ag      13.94890809      20.56343493      14.68179193 
Au      20.58027912      18.65955214      12.14503733 
Ag      16.07467520      13.25386727      12.95341527 
Ag      20.57049419      16.49003120      16.63909992 
Ag       9.37775516      16.38380808      16.91464892 
Au      10.48728377      17.82651823      13.77903924 
Au      22.86299234      17.36953726      14.77365536 
Au      16.90935719      19.54814242      21.48085353 
Au      16.61677947      22.59861346      19.44249093 
Ag      16.69696636      10.71596667      16.61717395 
Ag      16.32578121      10.31811028      13.07418289 
S      16.34502603      17.28587125      21.68058954 
S      20.03318531      14.68061826      20.01253864 
S      22.85366610      18.20921040      12.57608238 
S      23.05043661      16.58592339      16.98137342 
S      18.44129638      19.43894592      11.58992632 
S      19.74999810      15.17851125      12.03223053 
S      15.46637755      16.09799056      10.16651653 
S      13.53950428      11.78254100      16.83239452 
S      14.06790999      14.03583565      20.96105422 
S      20.12389625      12.94533868      15.63780284 
S      12.22268900      18.03809082      12.20710329 
S      11.86812801      20.23056174      15.90000021 
S      12.57866951      13.92136696      13.17720856 
S      10.06081609      15.09375324      18.85388745 
S      12.89349620      18.53120000      19.74160479 
S      19.28036076      20.95153457      15.54932431 
S      19.68972020      19.33277893      19.46840109 
S      15.29698513      21.63750865      12.95430215 
S      15.82931567      23.39350213      17.36492943 
S      17.46441701      21.84005020      21.49217349 
S      17.43412800      11.70244988      18.69846874 
S      16.29931740      11.64397461      11.07359515 
S       8.50323502      17.56721329      15.02520055 
S      16.16569607       8.97280730      15.02563858 
C      17.32104190      24.12406403      16.57967477 
C      16.35371974      22.57885186      22.75736356 
C      14.98233360      23.41919441      13.29421539 
C      12.11440177      19.78155166      11.64795648 
C       8.18303863      19.25563247      15.68086180 
C      12.01080259      21.23759292      17.42901185 
C      13.16005381      19.54709355      21.24823411 
C       9.88103563      16.27706041      20.24986131 
C      12.44250419      13.47608175      21.61800447 
C      11.83695381      12.00308145      16.18828541 
C      10.89895567      14.31153786      12.54782009 
C      18.16513458      18.91046660       9.85329980 
C      15.63611219      14.87476965       8.80363219 
C      14.58285668      11.39798544      10.44810142 
C      20.23159511      11.12773568      15.87713701 
C      23.63484585      14.85428663      16.76093463 
C      21.13785147      19.86641949      18.47499162 
C      20.66941804      21.45246903      14.45822846 
C      23.21618638      16.72651151      11.55427232 
C      17.65398688      16.52651929      22.72011343 
C      21.79813298      14.59382837      20.51843789 
C      16.29381054      11.00402290      19.95962663 
C      19.92467449      13.35240663      12.09144020 
C      17.62690940       7.85313981      15.00315462 
H      11.78344723      11.56878376      15.18412015 
H      11.56708470      13.06518589      16.14761245 
H      11.15872611      11.47048077      16.86521869 
H      10.77592093      13.82159709      11.57526063 
H      10.74170582      15.39231740      12.45198895 
H      10.17933425      13.89866617      13.26478619 
H      12.49329975      12.39442031      21.78911646 
H      11.62967649      13.69109839      20.91385859 
H      12.25385582      13.98596510      22.56971578 
H       8.81733858      16.33635168      20.50727213 
H      10.26412354      17.26860947      19.99065347 
H      10.44615992      15.88956024      21.10656734 
H       7.82466049      19.87845697      14.85340487 
H       9.09519843      19.69356120      16.10118367 
H       7.40290963      19.17937399      16.44618489 
H      11.83617077      22.28735340      17.16771363 
H      13.00243490      21.12915493      17.88369989 
H      11.25141794      20.89792521      18.14192895 
H      13.04979448      20.60218812      20.97183514 
H      14.15545371      19.38198681      21.67747804 
H      12.38901312      19.27304922      21.97798257 
H      17.45971723      15.44791740      22.74747916 
H      17.58724544      16.94235264      23.73114986 
H      18.64752260      16.71141356      22.29694603 
H      16.50453950      23.66431625      22.74391677 
H      16.64742569      22.17673975      23.73370572 
H      15.30393713      22.34609634      22.55955575 
H      21.06423129      20.95481985      18.36724454 
H      21.13605779      19.40597680      17.48088041 
H      22.05374810      19.60281120      19.01417270 
H      20.65570527      22.54640459      14.38517125 
H      20.57896560      21.00828056      13.45942363 
H      21.60752151      21.12331799      14.92022474 
H      22.08255562      13.53713559      20.57776260 
H      21.88536140      15.05715782      21.50818725 
H      22.43903440      15.12224108      19.80534933 
H      24.68108204      14.87310523      16.43679279 
H      23.02392629      14.31037858      16.03438293 
H      23.56106108      14.35322222      17.73360346 
H      20.05497366      10.65768207      14.90227544 
H      19.49027920      10.77285519      16.60248111 
H      21.24328742      10.88976849      16.22561145 
H      16.60381846       9.97283769      20.16361328 
H      15.25370551      11.01553147      19.61492292 
H      16.37363620      11.60576686      20.87149984 
H      14.36592584      12.18384263       9.71488259 
H      13.84530239      11.45529944      11.25386924 
H      14.52707694      10.41766730       9.96193103 
H      17.49734856       7.12646773      14.19302244 
H      17.66512579       7.32305775      15.96181285 
H      18.56276204       8.39946050      14.85486745 
H      13.00186165      19.99288543      11.04113292 
H      12.08079699      20.47381605      12.49649683 
H      11.20801085      19.88316509      11.04030667 
H      15.76350734      24.01531412      12.80864987 
H      14.97049308      23.62857773      14.36947587 
H      14.00726522      23.68305465      12.86797148 
H      18.84140082      19.47846560       9.20513115 
H      17.12398035      19.14250155       9.60194101 
H      18.33823686      17.83592174       9.72915438 
H      19.94342767      12.98523120      11.05892215 
H      19.09152193      12.88925971      12.63371140 
H      20.86597990      13.10943885      12.59646488 
H      23.20902596      17.03966881      10.50394299 
H      22.46547080      15.94536754      11.71427357 
H      24.21440696      16.36569422      11.82519274 
H      17.08001150      24.32975576      15.52965688 
H      18.17301845      23.43884450      16.63004020 
H      17.55435168      25.06132747      17.09720148 
H      16.37306149      15.27112813       8.09488403 
H      14.66762842      14.76797844       8.30254996 
H      15.97735426      13.90441424       9.18205253 
