156
Properties=species:S:1:pos:R:3 i=142 optimized=T E=-1715.7024426472 pbc="F F F" jobid=36_24-Ag-69_4-000001-PBE
Ag      16.04622965      15.73902702      14.40306890 
Ag      15.98305366      18.41205575      15.73829407 
Au      17.79481228      16.30823203      16.73051287 
Ag      16.74723137      14.01685793      18.00254076 
Ag      14.91605257      16.03487021      17.17510023 
Ag      17.70462022      19.04704449      18.02906506 
Ag      14.29149483      17.78512096      13.52068869 
Ag      19.08448846      18.54010519      15.42748430 
Ag      17.11993101      18.03204393      13.17003459 
Ag      19.14261414      16.02338587      14.23756099 
Au      15.04689744      13.30569649      15.59634433 
Au      12.99117507      17.99017192      16.25358415 
Au      15.98990533      20.95562172      16.92737801 
Ag      17.34244348      21.07684270      14.26451260 
Ag      14.91807191      18.82562094      18.43147553 
Ag      19.82588807      13.79527218      17.79735993 
Ag      17.80978442      13.54484091      15.23999837 
Ag      13.01689586      15.48147441      15.00605889 
Au      13.91967226      15.05056663      11.88607826 
Ag      13.86115325      13.51985063      18.65302385 
Au      17.45740065      15.59719622      11.40771185 
Ag      16.75916484      16.55763500      19.34567046 
Au      12.15905648      15.76857400      17.69049234 
Au      13.48202761      16.45120022      20.31474558 
Au      19.79902685      16.85048615      19.57444428 
Ag      14.13536495      20.56870033      14.61450742 
Ag      20.67187403      18.43109880      12.44910040 
Au      16.08830503      13.29351155      13.01052099 
Ag      20.57232658      16.43771341      16.71051290 
Au       9.27943720      16.10091745      16.82765458 
Ag      10.67677177      17.74056257      13.95190716 
Ag      22.83566122      17.18968107      14.88834100 
Ag      16.89150013      19.66593508      21.22949192 
Ag      16.42471036      22.63244342      19.33742608 
Ag      16.60002632      10.58906285      16.61489380 
Ag      16.25087259      10.32690946      13.11957830 
S      16.44820461      17.34983415      21.67001741 
S      20.01525719      14.55240019      20.08886056 
S      23.03015853      18.01795573      12.65912336 
S      23.01833979      16.35177801      17.13033915 
S      18.60564584      19.47026498      11.81262648 
S      19.71520193      15.21099064      11.95868662 
S      15.38735955      16.14751775      10.38756993 
S      13.61116835      11.84915539      16.91301048 
S      14.07425005      14.25912119      20.96476966 
S      20.16824894      12.91371909      15.57791297 
S      12.24772625      18.10996643      12.15925067 
S      12.02091707      20.16937738      15.77565242 
S      12.35633205      13.89246874      13.20833905 
S      10.09144962      14.80215029      18.62978886 
S      12.87428230      18.68034246      19.86205537 
S      19.39719131      20.98355780      15.54822431 
S      19.67771438      19.20078727      19.53768568 
S      15.44328570      21.66615880      12.88416881 
S      15.67887711      23.37830558      17.16598374 
S      17.30147272      22.02662654      21.46332349 
S      17.46781297      11.71564123      18.55695160 
S      16.23662667      11.71812254      11.14443344 
S       8.52486767      17.39363212      15.02987173 
S      16.05361879       8.88506780      15.00150834 
C      17.19689814      24.14767057      16.46507528 
C      16.06395767      22.61057879      22.69657301 
C      15.05709749      23.42950194      13.24053035 
C      12.02004192      19.88505429      11.73198699 
C       8.18949381      19.03544550      15.78950663 
C      12.03923146      21.17746195      17.30926559 
C      13.15608222      19.57756504      21.44179440 
C       9.71728513      15.85039360      20.09451918 
C      12.55642897      13.51933328      21.69467861 
C      11.89371487      11.96033237      16.27653060 
C      10.70742926      14.37584118      12.55469264 
C      18.36401236      19.03478083      10.04244922 
C      15.43104031      15.06607822       8.90215980 
C      14.50328450      11.51859810      10.55391316 
C      20.25621172      11.08320609      15.75640228 
C      23.53242087      14.60564630      16.83772366 
C      21.14592877      19.79964815      18.61359820 
C      20.74553203      21.52662012      14.41922920 
C      23.32852226      16.50260306      11.65713395 
C      17.87481219      16.81956571      22.70273752 
C      21.80562894      14.43616562      20.49237449 
C      16.47254202      11.10035731      19.97568489 
C      19.92521218      13.38738665      11.95055697 
C      17.51976894       7.77157696      14.94852082 
H      11.86004455      11.51086490      15.27851286 
H      11.55961969      13.00252796      16.22301235 
H      11.25187666      11.39946915      16.96577583 
H      10.51702773      13.80435088      11.63925537 
H      10.65517615      15.44912305      12.33943505 
H       9.96111108      14.11682909      13.31505288 
H      12.77597609      12.46892534      21.92079663 
H      11.70976370      13.56982371      21.00170481 
H      12.31518707      14.04981709      22.62269807 
H       8.64804468      15.75591362      20.31564119 
H       9.97648876      16.89731908      19.91303783 
H      10.30893920      15.47784899      20.93904662 
H       7.88860666      19.71217229      14.98115061 
H       9.07959827      19.43446737      16.28626546 
H       7.36676234      18.93231766      16.50493868 
H      11.69128213      22.18272826      17.04399879 
H      13.05101258      21.23510474      17.72714145 
H      11.36605226      20.72346720      18.04408985 
H      13.12075102      20.65121957      21.22077526 
H      14.12605342      19.32131827      21.88282968 
H      12.35129620      19.32009925      22.13962472 
H      17.81832341      15.73177992      22.82302775 
H      17.79350427      17.30526137      23.68140751 
H      18.83047315      17.07985472      22.23256194 
H      16.08960380      23.70585816      22.72225212 
H      16.35106606      22.21886609      23.67911673 
H      15.05167629      22.27496898      22.45432398 
H      21.05352810      20.88890217      18.53487066 
H      21.18572051      19.36993021      17.60638366 
H      22.04736780      19.53551141      19.17632430 
H      20.75917982      22.62277003      14.41074001 
H      20.59340697      21.15495303      13.39992146 
H      21.69960271      21.15309964      14.80858262 
H      22.07675079      13.37451173      20.52066750 
H      21.96932651      14.88326926      21.47957353 
H      22.41132028      14.96193608      19.74591401 
H      24.55357399      14.59980854      16.44136956 
H      22.85689762      14.09197324      16.14576852 
H      23.51640191      14.08124143      17.80084890 
H      20.07189396      10.63324874      14.77376196 
H      19.51710676      10.71225682      16.47535346 
H      21.26451306      10.81951570      16.09605558 
H      16.75072272      10.05786777      20.16633284 
H      15.39904314      11.16644718      19.76567032 
H      16.70980984      11.71422156      20.85162542 
H      14.25003875      12.36774560       9.90810627 
H      13.79402540      11.48617499      11.38588725 
H      14.45030688      10.58661950       9.97934679 
H      17.40161746       7.08161296      14.10529871 
H      17.54716727       7.19951882      15.88302711 
H      18.45478011       8.32761449      14.83657804 
H      12.87875871      20.20769864      11.13298833 
H      11.95303330      20.51353263      12.62703278 
H      11.09952772      19.97798453      11.14449081 
H      15.83572826      24.05749816      12.79228014 
H      15.00211987      23.61962029      14.31909893 
H      14.08978030      23.67035364      12.78418990 
H      19.14959772      19.51807867       9.45125314 
H      17.38305723      19.41505665       9.73544490 
H      18.39561862      17.94874232       9.89640075 
H      19.89243319      13.03756102      10.91316725 
H      19.13979381      12.90025367      12.53920365 
H      20.90117436      13.16575328      12.39685601 
H      23.35023950      16.79614685      10.60129431 
H      22.53927181      15.75880810      11.80738683 
H      24.30063496      16.08290010      11.93730003 
H      17.03902683      24.30766516      15.39163722 
H      18.07294188      23.50616627      16.60454175 
H      17.35101398      25.11193304      16.96230751 
H      16.14549223      15.50106955       8.19335455 
H      14.42882132      15.05761615       8.45864032 
H      15.74316008      14.04919302       9.16394154 
