156
Properties=species:S:1:pos:R:3 i=95 optimized=T E=-1647.7175141422 pbc="F F F" jobid=36_24-Ag-19_4-000001-PBE
Au      16.07422071      15.89441937      14.50136011 
Au      16.00301098      18.48436004      15.86087919 
Ag      17.91542947      16.31686976      16.87817745 
Ag      16.70587875      13.97382222      18.15346879 
Au      14.94654980      16.03253833      17.29746015 
Au      17.66361852      19.10756034      18.08736076 
Au      14.38349095      17.99056494      13.63042801 
Au      19.18439178      18.61928324      15.54247795 
Ag      17.20888407      18.29933170      13.29525430 
Au      19.18421265      16.20348270      14.17974661 
Au      15.03942220      13.50503694      15.69215912 
Au      13.03909706      17.98144871      16.41278048 
Au      15.89831382      21.04378894      16.96315607 
Au      17.40261800      21.34974457      14.39815510 
Au      14.91288283      18.91010696      18.55143531 
Au      20.11818648      13.76191488      17.62463679 
Au      17.77354916      13.73658095      15.21216499 
Ag      13.00436178      15.58138937      14.95168399 
Au      13.83111048      14.90946816      11.74405351 
Au      13.72748752      13.23891498      18.83061304 
Ag      17.20564074      15.76126234      11.65554290 
Au      16.68788574      16.50251650      19.44415487 
Au      12.23861871      15.64520805      17.72715314 
Au      13.40982069      16.43980021      20.41159592 
Au      19.86301712      16.83339792      19.44326156 
Au      13.86554351      20.87361399      14.65877128 
Au      20.62810369      18.79224868      12.02370138 
Ag      15.96975278      13.42991010      13.02185037 
Au      20.72969063      16.49209613      16.51023938 
Au       9.39644111      16.17552547      16.43753919 
Au      10.75136186      17.74415189      13.37992231 
Ag      22.83414149      17.34794606      14.59412581 
Au      16.93158766      19.40231193      21.71290355 
Au      16.42672583      22.49968471      19.75949318 
Au      16.78979778      10.53793991      17.21693837 
Au      16.20078746      10.38839738      13.52426045 
S      16.60532370      17.08545054      21.82692388 
S      20.30264863      14.53871566      19.84115938 
S      22.90280891      18.30027613      12.39027230 
S      23.14850128      16.37846134      16.80469289 
S      18.45324930      19.51789138      11.52249803 
S      19.60643355      15.39141615      11.93091584 
S      15.24864975      15.98681793      10.20915883 
S      13.63469015      11.91831011      16.88003087 
S      13.83153346      14.19455811      20.99707667 
S      20.04765612      12.90766807      15.43658304 
S      12.59610879      18.12419681      11.97871799 
S      11.98335322      20.11172535      15.86005777 
S      12.37444034      13.85198904      13.24714645 
S       9.97845469      14.97636827      18.38185908 
S      12.94592885      18.70115546      19.95583562 
S      19.39771703      21.04644405      15.60340652 
S      19.60420579      19.17655598      19.54362558 
S      15.44817511      21.80255223      13.15965432 
S      15.65851284      23.35415111      17.70349308 
S      17.29718478      21.72809213      21.79413097 
S      17.58864408      11.80306731      19.01288881 
S      16.29691539      11.50999502      11.46244684 
S       8.71952587      17.32392222      14.50444710 
S      15.99619873       9.13425475      15.50014457 
C      17.12497486      24.24395426      17.03934707 
C      16.13827912      22.34950848      23.07775717 
C      15.17708736      23.60797565      13.36611865 
C      12.41036043      19.87514218      11.45865435 
C       8.24602461      18.98195937      15.14213854 
C      11.94136919      21.13605874      17.38130672 
C      13.26041486      19.61602638      21.51403072 
C       9.55243899      16.13855618      19.74246410 
C      12.26854974      13.59324459      21.75285389 
C      11.90429537      12.04688859      16.28675890 
C      10.68473247      14.16700529      12.59865146 
C      18.10652960      18.79270754       9.87037719 
C      15.61699802      14.73946558       8.90897882 
C      14.64119775      11.19395373      10.72246486 
C      19.98757507      11.08100749      15.58270653 
C      23.59961473      14.63458975      16.42659636 
C      21.03932995      19.86079977      18.62921294 
C      20.75849571      21.50950275      14.46363465 
C      23.19283926      16.83271130      11.31929094 
C      18.11511427      16.44362728      22.64791685 
C      22.11033260      14.56341673      20.16384529 
C      16.54463342      11.29100981      20.43601367 
C      19.80688202      13.56627768      11.92025195 
C      17.26651966       7.81514724      15.34354648 
H      11.86880528      11.60256961      15.28584164 
H      11.57404197      13.09026614      16.23998955 
H      11.27112452      11.47967909      16.97819990 
H      10.53344047      13.56343444      11.69693765 
H      10.53272951      15.22987513      12.37307036 
H       9.97508032      13.85690375      13.37548526 
H      12.38765626      12.52440847      21.96587922 
H      11.41829243      13.74141389      21.07963505 
H      12.11169389      14.14194000      22.68847444 
H       8.46391434      16.13385182      19.86903817 
H       9.90597120      17.15137990      19.52952313 
H      10.03733620      15.77660237      20.65696818 
H       7.94718723      19.59253615      14.28237875 
H       9.08139072      19.45950276      15.66384493 
H       7.39333149      18.85292672      15.81768304 
H      11.62383932      22.14706360      17.10248001 
H      12.92609530      21.16623834      17.86071676 
H      11.21402675      20.68578612      18.06620589 
H      13.20496858      20.68603514      21.27963973 
H      14.25106985      19.38133610      21.92442855 
H      12.47614070      19.34899331      22.23152990 
H      18.07337795      15.34924311      22.60436173 
H      18.10582448      16.77774198      23.69148994 
H      19.02213223      16.79481190      22.14203894 
H      16.20892650      23.44305918      23.09274447 
H      16.46168978      21.94396292      24.04322634 
H      15.10776147      22.04601791      22.87376118 
H      20.84532075      20.92497593      18.45445194 
H      21.17893374      19.34638026      17.67185788 
H      21.92696413      19.73633923      19.25975761 
H      20.71487442      22.59235494      14.30104080 
H      20.68303381      20.97653136      13.50660362 
H      21.70207510      21.24533468      14.95613215 
H      22.46903096      13.52784372      20.16777580 
H      22.26792337      15.01258027      21.15137014 
H      22.63766314      15.14974011      19.40206105 
H      24.67630722      14.60366951      16.22267161 
H      23.04444058      14.24852425      15.56701583 
H      23.36914924      14.01447050      17.30162087 
H      19.74148861      10.68331435      14.59039932 
H      19.22349396      10.76146074      16.30415821 
H      20.97868790      10.73138818      15.89348785 
H      16.80013207      10.26142445      20.70888646 
H      15.47811815      11.36644323      20.19428916 
H      16.77510828      11.96454505      21.26960999 
H      14.55888890      11.81372533       9.82160231 
H      13.83556137      11.45921659      11.41384652 
H      14.57297150      10.13578518      10.44805342 
H      16.98482228       7.17382944      14.50060735 
H      17.25833797       7.23166315      16.27134259 
H      18.26391753       8.23129513      15.17625850 
H      13.31808792      20.15254765      10.91052581 
H      12.28929295      20.53869073      12.32282423 
H      11.53857076      19.94157992      10.79802605 
H      15.99805790      24.13410755      12.86589409 
H      15.13726349      23.88450266      14.42424197 
H      14.22609662      23.86073396      12.88279780 
H      18.70104892      19.33256034       9.12485352 
H      17.03859311      18.92755362       9.66493574 
H      18.34998284      17.72466689       9.83921543 
H      19.79312895      13.23903493      10.87409655 
H      19.00052620      13.07006464      12.47137341 
H      20.76840376      13.31504879      12.38077418 
H      23.18388643      17.16540875      10.27512025 
H      22.41691985      16.07448693      11.47005882 
H      24.17961301      16.42397859      11.56369660 
H      16.92308539      24.49129240      15.99047061 
H      18.02578570      23.62624706      17.09677637 
H      17.25738454      25.16406370      17.61969689 
H      16.37926806      15.16500765       8.24550227 
H      14.70227011      14.54586193       8.33743065 
H      15.99189435      13.80714858       9.34443204 
