156
Properties=species:S:1:pos:R:3 i=103 optimized=T E=-1662.821909926 pbc="F F F" jobid=36_24-Ag-30_6-000004-PBE
Au      16.08934721      15.74457073      14.48357260 
Au      15.99086302      18.43526817      15.81889043 
Au      17.85507974      16.27378535      16.86537065 
Au      16.64807589      13.99835845      18.17879373 
Au      14.84316961      15.94314391      17.25936602 
Au      17.62888597      19.06932974      18.11960979 
Au      14.31754995      17.84274159      13.63084782 
Ag      19.05840791      18.54171109      15.57016309 
Au      17.11923556      18.07191940      13.21780994 
Ag      19.07289637      16.03683456      14.25925687 
Ag      15.05027417      13.33674718      15.66299808 
Au      12.89730989      17.87541332      16.31870213 
Au      15.90575634      21.00031028      16.92654248 
Ag      17.41435913      21.07707878      14.38549339 
Au      14.83255743      18.83147742      18.40384924 
Au      20.22450483      13.74381220      17.84358866 
Au      17.79606736      13.59003553      15.28561793 
Au      13.00064352      15.36296670      15.09018382 
Ag      14.06612985      15.19328600      11.98783147 
Au      13.68598127      13.17045426      18.81687102 
Au      17.51286370      15.60548520      11.32743812 
Au      16.55714362      16.50207804      19.46182201 
Au      12.11661928      15.56048279      17.77592921 
Au      13.37943503      16.40977007      20.37816877 
Ag      19.57117110      16.76734284      19.36337188 
Au      13.87742819      20.77795653      14.60537486 
Au      20.65670560      18.63022542      12.04504090 
Ag      16.19185824      13.40835630      12.95063820 
Ag      20.62460425      16.38131117      16.61140867 
Ag       9.45180595      16.36168232      16.61351657 
Au      10.54996259      17.81250264      13.54295834 
Ag      22.72587844      17.32710631      14.55809249 
Au      16.90728981      19.49826113      21.69085189 
Au      16.50560669      22.53945000      19.66378672 
Ag      16.72342861      10.81687548      16.69568980 
Au      16.14861897      10.39421765      13.15942915 
S      16.53412043      17.18719632      21.80430204 
S      20.37927102      14.55733567      20.03915158 
S      22.92920331      18.11448834      12.29555494 
S      23.06705359      16.60442644      16.82488894 
S      18.48329879      19.45879169      11.75887586 
S      19.73584749      15.20154843      12.00254290 
S      15.47551321      16.12206836      10.24300368 
S      13.65169156      11.72958333      16.95527985 
S      13.73690169      14.15852891      20.97735653 
S      20.11081795      12.87758023      15.65784180 
S      12.40661541      17.92261292      12.11375888 
S      11.98620700      20.08086413      15.84468555 
S      12.51595751      13.84264580      13.28426630 
S       9.89874878      15.06525066      18.61913842 
S      12.91074376      18.66048784      19.87301034 
S      19.48627856      20.98623682      15.61602786 
S      19.52352002      19.20273536      19.61263449 
S      15.44822820      21.67949073      13.09253435 
S      15.81008376      23.34270184      17.56193586 
S      17.29047306      21.82050141      21.75349080 
S      17.54726007      11.82830126      18.73490672 
S      16.09748126      11.64428516      11.17157992 
S       8.54545249      17.56709180      14.74087932 
S      16.07718018       9.10463090      15.10884763 
C      17.33356740      24.10812862      16.87121032 
C      16.08049856      22.47821423      22.97030149 
C      15.23266886      23.48890139      13.33526490 
C      12.36910352      19.59664519      11.36728459 
C       8.21740929      19.24536016      15.41916602 
C      12.00821029      21.11047251      17.36227563 
C      13.25535777      19.63246518      21.38886248 
C       9.61217085      16.28821884      19.96501780 
C      12.12641553      13.60652312      21.66672330 
C      11.93254117      11.74284592      16.31409166 
C      10.81291828      14.19279630      12.69135336 
C      18.03526144      19.06494985      10.02532437 
C      15.45972978      14.91232852       8.85966171 
C      14.34369752      11.48443034      10.63586313 
C      20.19705242      11.05237647      15.82892559 
C      23.71447362      14.89074314      16.62064048 
C      20.98728775      19.83327534      18.70294614 
C      20.83125585      21.44082912      14.44882067 
C      23.18883405      16.58949111      11.30112396 
C      18.03300319      16.51480877      22.62317115 
C      22.16559557      14.88523551      20.32299097 
C      16.50999751      11.10458152      20.06732587 
C      19.91416178      13.37405211      12.02478223 
C      17.49551251       7.94096075      14.98632333 
H      11.93500912      11.18878522      15.36852012 
H      11.59158522      12.76832083      16.13635157 
H      11.28356878      11.24363746      17.04153107 
H      10.67958587      13.67024281      11.73673366 
H      10.64334580      15.26817460      12.55665466 
H      10.10355997      13.79999809      13.42898175 
H      12.20658796      12.53517359      21.88513886 
H      11.31290931      13.77757005      20.95261041 
H      11.94426819      14.16006876      22.59478710 
H       8.53515009      16.31476720      20.16772869 
H       9.96664554      17.28553063      19.68992296 
H      10.15127114      15.95807790      20.86119803 
H       7.87106690      19.88295005      14.59784326 
H       9.11934277      19.67830855      15.86381131 
H       7.42590793      19.15603489      16.17152289 
H      11.72136316      22.12929843      17.07796792 
H      13.00287686      21.11210275      17.82259285 
H      11.27823558      20.69312472      18.06467736 
H      13.17076642      20.69269637      21.12121312 
H      14.26252056      19.43268790      21.77771508 
H      12.49867149      19.37429752      22.13847599 
H      17.99636824      15.42277718      22.54242949 
H      18.00140571      16.81529505      23.67672428 
H      18.94977136      16.88783819      22.15321063 
H      16.15682009      23.57151766      22.96229673 
H      16.35984449      22.09487416      23.95835290 
H      15.05792172      22.17501785      22.72949731 
H      20.82034197      20.88745527      18.45792294 
H      21.16128502      19.27160898      17.77839381 
H      21.85212929      19.72944520      19.36857327 
H      20.77869184      22.51823626      14.25580849 
H      20.75712301      20.89099242      13.50238023 
H      21.78837304      21.20226057      14.92801755 
H      22.69862964      13.92864147      20.36162654 
H      22.25802269      15.39375800      21.29010407 
H      22.58520458      15.52100985      19.53484954 
H      24.76012915      14.94891807      16.29875075 
H      23.13065850      14.31945104      15.89303432 
H      23.65662844      14.38494866      17.59183996 
H      19.92217220      10.61664805      14.86100096 
H      19.51730040      10.69069963      16.60890821 
H      21.23035791      10.78384483      16.07807400 
H      16.81507393      10.06034254      20.20152582 
H      15.44416317      11.15584922      19.81473872 
H      16.69419413      11.66694078      20.98956909 
H      14.19479634      12.15698652       9.78250466 
H      13.65223491      11.76184110      11.43771017 
H      14.16294609      10.45073873      10.32199187 
H      17.29928549       7.23677058      14.16990269 
H      17.55796811       7.39389461      15.93431145 
H      18.43856772       8.46321141      14.80214462 
H      13.26053969      19.69510744      10.73743356 
H      12.38123235      20.37130833      12.14284574 
H      11.46395852      19.67652018      10.75502323 
H      16.06409609      23.99634181      12.83218897 
H      15.22515463      23.74965640      14.39856057 
H      14.28532965      23.79486516      12.87679251 
H      18.69021856      19.64808003       9.36828626 
H      16.99079891      19.36206796       9.87821172 
H      18.14320004      17.99285102       9.82472727 
H      19.85988472      13.00045015      10.99670293 
H      19.13554133      12.90497610      12.63749185 
H      20.89550321      13.14584073      12.45648272 
H      23.21250292      16.87420694      10.24309846 
H      22.38551896      15.86435799      11.46855765 
H      24.15676271      16.16321739      11.58709162 
H      17.12661949      24.38017051      15.82932070 
H      18.17972908      23.41451666      16.90271094 
H      17.55398260      25.01022360      17.45269647 
H      16.18180984      15.23770579       8.10197080 
H      14.45229950      14.90664008       8.42757863 
H      15.72448797      13.90910034       9.21025831 
