156
Properties=species:S:1:pos:R:3 i=114 optimized=T E=-1715.7084968558 pbc="F F F" jobid=36_24-Ag-69_4-000006-PBE
Ag      16.09312829      15.83559427      14.45137546 
Ag      15.97462472      18.45951295      15.87477749 
Ag      17.87176213      16.25737116      16.82739207 
Ag      16.60508931      13.94288887      18.09659178 
Au      14.92151445      15.98836774      17.16308688 
Ag      17.62454710      19.12833135      18.14664749 
Ag      14.32872072      17.94072966      13.60400039 
Ag      19.04432862      18.55748036      15.58056701 
Au      17.10394241      18.19994408      13.30398975 
Ag      19.11514774      16.12279966      14.22961479 
Ag      15.00421245      13.38688991      15.63029750 
Au      13.01859630      17.90872227      16.36999306 
Ag      15.85948105      21.07516134      16.91280100 
Ag      17.33212620      21.07201990      14.36432100 
Au      14.88999244      18.96301476      18.48589848 
Au      20.03691776      13.75906639      17.58000281 
Ag      17.79025553      13.62211960      15.27499498 
Ag      13.04066196      15.51736346      14.97483149 
Ag      14.00650576      15.19250668      11.84664349 
Au      13.72966014      13.12522464      18.73433367 
Ag      17.26746618      15.75789804      11.54791758 
Au      16.60739178      16.50576664      19.34389298 
Ag      12.22878150      15.54535656      17.77336763 
Ag      13.67543239      16.36992014      20.22990302 
Au      19.73799587      16.84011098      19.43229489 
Au      13.83488673      20.77380206      14.59697112 
Ag      20.75950104      18.33946288      12.34112616 
Au      16.09273821      13.43710304      13.03842413 
Ag      20.66589803      16.46002247      16.58604084 
Ag       9.43836969      16.19141537      16.82880064 
Ag      10.66757024      17.65664250      13.92489586 
Ag      22.93040622      17.26890511      14.74365518 
Ag      16.90725785      19.64885369      21.21005895 
Ag      16.47315679      22.63761838      19.36739956 
Au      16.81541398      10.52737414      16.89244211 
Ag      16.18910384      10.49537279      13.30507860 
S      16.44252635      17.32251636      21.63760268 
S      20.02686537      14.51642636      19.81817827 
S      23.13532530      17.97461903      12.46911930 
S      23.11719447      16.50692925      17.01491842 
S      18.66503174      19.44422730      11.88913218 
S      19.65078843      15.43724966      11.90755604 
S      15.35474462      16.19963170      10.11376355 
S      13.50501106      11.78678557      16.81058360 
S      13.95365405      14.05561805      20.89815506 
S      20.19377663      12.92718722      15.39036746 
S      12.31469820      17.82898624      12.18328651 
S      11.96416661      20.05650835      15.84979083 
S      12.47012137      13.90510345      13.20913753 
S      10.04934442      14.92956907      18.77567781 
S      12.92429511      18.65305614      19.91033227 
S      19.34526770      21.01625071      15.69915263 
S      19.66535969      19.18874732      19.56757372 
S      15.37504694      21.69313281      13.06969589 
S      15.72987689      23.53143329      17.26598391 
S      17.34707416      21.99723169      21.49006013 
S      17.56130023      11.74441010      18.74733549 
S      16.17040124      11.76519227      11.24852578 
S       8.52396101      17.40881088      14.99303310 
S      16.07205908       9.06170674      15.21110973 
C      17.27615520      24.27420667      16.59269316 
C      16.11515569      22.59169181      22.72344599 
C      15.13656982      23.49628813      13.33604993 
C      12.07192429      19.48400459      11.41827225 
C       8.18188231      19.07084573      15.70880263 
C      11.94369799      21.10877081      17.35197569 
C      13.20529905      19.53239498      21.49926396 
C       9.76979320      16.15726005      20.12312510 
C      12.36944061      13.54676874      21.67882162 
C      11.76818150      11.99909250      16.25677970 
C      10.78336990      14.24716190      12.55598426 
C      18.24921502      19.07614142      10.13942304 
C      15.59006681      14.90572820       8.82670098 
C      14.43374338      11.57718157      10.66896155 
C      20.27846953      11.09878499      15.55750317 
C      23.70143325      14.77532015      16.76674977 
C      21.13091396      19.81065043      18.65725238 
C      20.72153517      21.47761016      14.56574364 
C      23.37712320      16.39181811      11.55911534 
C      17.85615860      16.66908109      22.60601677 
C      21.79455812      14.46505312      20.31780053 
C      16.55462772      11.08041351      20.13521297 
C      19.97159796      13.62948932      11.81630104 
C      17.44208798       7.85257408      14.99416819 
H      11.66914089      11.47234391      15.30075670 
H      11.51665184      13.05522579      16.10849725 
H      11.10398551      11.55325809      17.00469645 
H      10.62059134      13.59967774      11.68644569 
H      10.67026356      15.29535125      12.25847273 
H      10.05094031      14.00372688      13.33420561 
H      12.42079343      12.47583645      21.90654791 
H      11.52245751      13.74004294      21.01061486 
H      12.25512446      14.11436952      22.60949096 
H       8.69070359      16.29066324      20.25684921 
H      10.24212012      17.11998083      19.90474376 
H      10.20237393      15.75475610      21.04707497 
H       7.83701962      19.72207762      14.89730333 
H       9.07734366      19.50676555      16.16305290 
H       7.38891194      18.97510483      16.45833973 
H      11.65921742      22.12265410      17.04974031 
H      12.92564922      21.11444549      17.83929327 
H      11.20144873      20.69270120      18.04243145 
H      13.22230060      20.61024639      21.30035493 
H      14.14621106      19.22781371      21.97070104 
H      12.36666963      19.29619850      22.16520753 
H      17.74519854      15.58185904      22.68492638 
H      17.82084672      17.12163819      23.60364084 
H      18.80897003      16.90728073      22.11763119 
H      16.15794422      23.68637171      22.75524090 
H      16.39192217      22.18989326      23.70486962 
H      15.09837506      22.27485114      22.47494882 
H      21.06176779      20.90435724      18.64513845 
H      21.14296765      19.43784851      17.62682796 
H      22.03447061      19.49323996      19.18817730 
H      20.75228021      22.57086987      14.49261270 
H      20.58769826      21.04733514      13.56729674 
H      21.66121703      21.11354991      14.99720575 
H      22.11595985      13.41733431      20.32437161 
H      21.86836170      14.88114755      21.32932663 
H      22.41269543      15.05195576      19.62946572 
H      24.73677958      14.80010187      16.40942008 
H      23.07283352      14.23162287      16.05467914 
H      23.66467453      14.25891790      17.73339040 
H      20.22040982      10.68272249      14.54406347 
H      19.44595191      10.71455031      16.16088786 
H      21.23622606      10.82502220      16.01325587 
H      16.86526082      10.04841387      20.33073439 
H      15.48397535      11.11889836      19.90438219 
H      16.75764138      11.70483275      21.01296101 
H      14.25516186      12.31068114       9.87349667 
H      13.71906200      11.74965203      11.48005131 
H      14.31509295      10.56392596      10.26888318 
H      17.18110228       7.19954089      14.15329883 
H      17.52219933       7.25517558      15.90931754 
H      18.39623306       8.34768142      14.79319287 
H      12.85649052      19.62344497      10.66583193 
H      12.14252490      20.28090335      12.16724664 
H      11.08872917      19.50556137      10.93551928 
H      15.95934427      24.01835230      12.83383906 
H      15.13180369      23.73878230      14.40497205 
H      14.18352005      23.79371784      12.88408775 
H      18.96212353      19.61625014       9.50574219 
H      17.23171898      19.43219901       9.94480388 
H      18.30400074      18.00083897       9.93579088 
H      19.97258622      13.33259911      10.76163202 
H      19.19947922      13.07099518      12.35730710 
H      20.94851590      13.42179055      12.26626448 
H      23.40126686      16.62087320      10.48745057 
H      22.56106680      15.68935627      11.75820729 
H      24.33531102      15.95387313      11.85850930 
H      17.07822355      24.59656900      15.56330865 
H      18.10164967      23.55482848      16.58766020 
H      17.54074970      25.14676592      17.19972464 
H      16.34006818      15.26252279       8.11107938 
H      14.63817766      14.74948034       8.30622264 
H      15.93302507      13.96102762       9.26483280 
