156
Properties=species:S:1:pos:R:3 i=108 optimized=T E=-1704.3727160069 pbc="F F F" jobid=36_24-Ag-61_1-000008-PBE
Ag      16.09372331      15.76569721      14.39175538 
Au      15.97771656      18.41513861      15.72257307 
Ag      17.83372939      16.29866908      16.74436058 
Ag      16.69375513      14.00200133      18.01948759 
Ag      14.89549573      15.98279426      17.11682135 
Au      17.61554044      19.04559865      17.98215368 
Au      14.29257609      17.82722326      13.61863730 
Ag      19.12390097      18.61291069      15.41156128 
Ag      17.10457342      18.10410609      13.13689169 
Au      19.18830288      16.13669306      14.22257437 
Au      15.12152864      13.34391591      15.56822980 
Ag      12.77503704      17.90159901      16.23698376 
Au      15.89277677      21.00609126      16.89111075 
Ag      17.28159982      21.11979990      14.27347325 
Au      14.81989577      18.77305236      18.29820855 
Ag      19.82293627      13.79604603      17.78675015 
Ag      17.88928421      13.63254436      15.21737850 
Au      12.93706321      15.38481078      15.11378397 
Ag      13.97802232      15.13034195      11.97220241 
Au      13.87518121      13.20098546      18.90301995 
Au      17.34969190      15.67338022      11.31593793 
Ag      16.68035278      16.53607789      19.30057487 
Ag      12.23518879      15.54702908      17.84052198 
Ag      13.75366035      16.38972485      20.28766552 
Au      19.72019166      16.79852676      19.53455522 
Ag      13.89316195      20.61762471      14.69742658 
Ag      20.64907124      18.46117564      12.52280306 
Au      16.13673344      13.34300505      12.98270017 
Ag      20.62554909      16.42183056      16.63355774 
Ag       9.54046879      16.33035620      16.89332816 
Au      10.58837226      17.74067320      13.73702714 
Ag      22.91567115      17.22207799      14.93919303 
Ag      16.96072067      19.64192351      21.34415555 
Ag      16.53271808      22.54618582      19.40353095 
Ag      16.68529093      10.59418754      16.52859994 
Au      16.19002081      10.25879498      13.03956063 
S      16.23768589      17.37392904      21.61467635 
S      19.99963225      14.52954977      20.10027231 
S      23.02059218      18.04687968      12.70458934 
S      23.05139780      16.39743255      17.19291228 
S      18.61093096      19.53209442      11.80831682 
S      19.59559366      15.29817799      11.94081597 
S      15.31133330      16.22911558      10.26176367 
S      13.79273735      11.84591543      16.97738437 
S      13.97828893      14.10121772      21.07646075 
S      20.24714458      12.96497201      15.55146990 
S      12.33403490      17.93290597      12.17472366 
S      11.85044791      20.18334924      15.92086353 
S      12.41402593      13.83220594      13.28620163 
S      10.03461027      15.08539195      18.89947209 
S      12.89800568      18.60372147      19.73823649 
S      19.35270524      21.06588161      15.52891791 
S      19.55261198      19.14978410      19.44025698 
S      15.29583344      21.64534299      13.00167671 
S      15.64673882      23.37314602      17.31001215 
S      17.52433691      21.97023402      21.49513895 
S      17.66603350      11.73687096      18.41074464 
S      16.18100599      11.68840653      11.16315811 
S       8.61544672      17.45162178      14.98321009 
S      16.06684069       8.88630292      14.92475460 
C      17.11850741      24.17297527      16.54611666 
C      16.39700111      22.67387831      22.77145594 
C      14.95773484      23.42688664      13.31346026 
C      12.21630643      19.64313993      11.52158948 
C       8.22971903      19.13792184      15.60539450 
C      11.94844570      21.21953046      17.43359988 
C      13.18456433      19.66875626      21.20798091 
C       9.80173466      16.33802470      20.22901856 
C      12.33962856      13.62514497      21.75955503 
C      12.05618875      11.87042166      16.39110187 
C      10.72495204      14.20527413      12.66725664 
C      18.41949372      19.09624872      10.03268324 
C      15.33504164      15.11464987       8.79918491 
C      14.44428474      11.56586339      10.56801069 
C      20.34780596      11.13317085      15.70851574 
C      23.59637636      14.65605733      16.92809764 
C      21.01321099      19.75739391      18.51410733 
C      20.67102727      21.62775917      14.37367214 
C      23.28571416      16.52957956      11.69631001 
C      17.39321406      16.51382690      22.75457446 
C      21.78984384      14.47299700      20.51607907 
C      16.91152121      11.04428281      19.93761259 
C      19.83368951      13.48029960      11.96448102 
C      17.51595774       7.75795126      14.81914769 
H      12.03161640      11.37310900      15.41491047 
H      11.69422905      12.89937154      16.28416159 
H      11.44733536      11.31984899      17.11656914 
H      10.59306340      13.69070816      11.70826721 
H      10.56877943      15.28315592      12.53806288 
H      10.00065183      13.81831091      13.39347082 
H      12.35007578      12.55173612      21.98022823 
H      11.53652224      13.84926597      21.04758674 
H      12.18990091      14.18904975      22.68760265 
H       8.72986395      16.53313807      20.34398351 
H      10.33093630      17.27035932      20.00742717 
H      10.19577209      15.92116433      21.16390586 
H       7.84136637      19.72892113      14.76823591 
H       9.12525262      19.62104102      16.01252024 
H       7.45765763      19.04378745      16.37697481 
H      11.74908123      22.25945633      17.15169648 
H      12.93704226      21.14503305      17.90005417 
H      11.18943858      20.87190019      18.14296422 
H      13.22600460      20.71387046      20.88017653 
H      14.11234771      19.40071932      21.72541987 
H      12.33188980      19.52785062      21.88351366 
H      17.06137951      15.47295774      22.84474929 
H      17.35243106      16.99995692      23.73519621 
H      18.41608506      16.53699771      22.36242179 
H      16.48682080      23.76582936      22.74848902 
H      16.71934583      22.30501272      23.75185903 
H      15.35474294      22.39017501      22.60159450 
H      20.85223742      20.82025506      18.30270663 
H      21.14088142      19.21462310      17.57042705 
H      21.89187988      19.61897825      19.15380679 
H      20.65441886      22.72362625      14.34917793 
H      20.51774398      21.23702879      13.36190881 
H      21.63965880      21.28672941      14.75668393 
H      22.09516573      13.42047177      20.54021176 
H      21.93394503      14.92014902      21.50620186 
H      22.38176659      15.02100656      19.77446789 
H      24.62313128      14.66059665      16.54661351 
H      22.93804442      14.12507248      16.23240342 
H      23.57392594      14.14258859      17.89689024 
H      20.09701612      10.68943390      14.73801027 
H      19.66171686      10.75627423      16.47479355 
H      21.37795405      10.87018638      15.97617489 
H      17.20425089       9.99261478      20.02893942 
H      15.81931237      11.13095276      19.90975516 
H      17.29915143      11.61095788      20.79195517 
H      14.28773594      12.34751712       9.81523395 
H      13.73154475      11.70417074      11.38692441 
H      14.30986059      10.57940110      10.11024618 
H      17.36299561       7.07263401      13.97791975 
H      17.55795779       7.18657665      15.75377850 
H      18.45142183       8.30743598      14.68294437 
H      13.10063094      19.82226308      10.89995572 
H      12.18571281      20.37745260      12.33413220 
H      11.30618090      19.70761088      10.91466438 
H      15.74864535      24.02364592      12.84472980 
H      14.91373246      23.64471247      14.38681403 
H      13.99400740      23.68038394      12.85633418 
H      19.22305542      19.57834792       9.46512522 
H      17.44811947      19.47579837       9.69569277 
H      18.45221810      18.01019107       9.88680577 
H      19.88809504      13.13453019      10.92616537 
H      19.00826683      12.98223165      12.48656435 
H      20.77299570      13.27224194      12.48869417 
H      23.26474945      16.81925429      10.63939903 
H      22.50653897      15.78261531      11.87937106 
H      24.26943409      16.11329689      11.93864700 
H      16.90267572      24.35934100      15.48743848 
H      18.00681241      23.53808129      16.62402114 
H      17.28700915      25.12543959      17.06141526 
H      16.03222977      15.52411166       8.05912067 
H      14.32350132      15.09234128       8.37706783 
H      15.64808096      14.10193880       9.07305896 
