156
Properties=species:S:1:pos:R:3 i=133 optimized=T E=-1704.3781275978 pbc="F F F" jobid=36_24-Ag-61_1-000003-PBE
Ag      16.07548251      15.87456083      14.37466590 
Au      16.04787254      18.50061638      15.80880722 
Au      17.87477655      16.33463054      16.78813168 
Ag      16.81195094      14.03719737      18.00608698 
Ag      14.95180336      16.06318881      17.14547677 
Au      17.66161692      19.19476515      18.12963145 
Au      14.39032103      18.07458883      13.63811832 
Ag      19.06165522      18.67331274      15.56028736 
Ag      17.17019188      18.25657633      13.19204435 
Ag      19.12268787      16.20538130      14.16607687 
Ag      15.06060744      13.48467533      15.63048464 
Au      12.98242684      17.98308707      16.31416204 
Ag      15.94163650      21.11800256      16.83134873 
Ag      17.41564611      21.17095605      14.26119004 
Au      14.93687818      18.92889971      18.42954596 
Ag      19.88570140      13.88793813      17.76358164 
Ag      17.85876191      13.75344174      15.21443704 
Ag      13.01762432      15.57262903      14.97048237 
Au      13.84949318      14.94920758      11.87532885 
Ag      13.94977498      13.49447639      18.67565257 
Au      17.32843586      15.74060113      11.35463382 
Ag      16.69297999      16.57035653      19.35133684 
Ag      12.19705850      15.70020117      17.72453966 
Au      13.44890847      16.42039031      20.30898782 
Ag      19.68676415      16.88335276      19.31848756 
Au      13.89117723      20.94390587      14.63160508 
Ag      20.79840176      18.44167985      12.21149068 
Au      16.13403096      13.42545722      13.04577408 
Au      20.64179229      16.51453045      16.51197112 
Au       9.42312499      15.93999050      16.68676911 
Ag      10.91949274      17.65195288      13.87735820 
Ag      22.93788667      17.18480032      14.66454050 
Ag      16.81837948      19.54730114      21.21462769 
Ag      16.44735780      22.59093772      19.37670093 
Ag      16.38331616      10.37354150      16.77929336 
Au      16.12443916      10.11662620      13.35265452 
S      16.46083723      17.22033820      21.71623402 
S      20.05564814      14.60200110      20.06539586 
S      23.13905224      17.92543249      12.40384955 
S      23.02680241      16.43651677      16.96063064 
S      18.71400994      19.54820285      11.76898767 
S      19.61280709      15.44293733      11.85560543 
S      15.21501534      16.14905439      10.36342568 
S      13.78601425      11.81998664      16.94260327 
S      13.95972260      14.23253531      20.99814139 
S      20.16529648      12.94456274      15.55436831 
S      12.51178012      18.08066287      12.10407793 
S      12.03181166      20.22328444      15.89423783 
S      12.39350129      13.80513743      13.32325558 
S      10.06464667      14.62610346      18.53690682 
S      12.93917460      18.66427383      19.79728778 
S      19.47187126      21.11040094      15.51856252 
S      19.64738941      19.30994416      19.51648522 
S      15.41452235      21.83395470      13.06600716 
S      15.77441106      23.55072921      17.28319156 
S      17.25286164      21.89797179      21.50515576 
S      17.40443452      11.69417157      18.51763608 
S      16.29070124      11.53834454      11.48765198 
S       8.73733127      17.23927392      14.85814153 
S      15.86139462       8.65578440      15.15924373 
C      17.34866642      24.30347926      16.68702067 
C      16.01824561      22.50080540      22.73057930 
C      15.25677672      23.64190530      13.35378762 
C      12.18271767      19.81925469      11.60691739 
C       8.30237826      18.85792422      15.61538002 
C      12.02580340      21.22636445      17.42811408 
C      13.17890562      19.56868206      21.37787770 
C       9.52807333      15.66278476      19.96161600 
C      12.38477402      13.49510685      21.59488072 
C      12.04876334      11.73605217      16.34818905 
C      10.69668261      14.17485688      12.71601158 
C      18.30123841      19.17352170      10.01771231 
C      15.31815486      15.10190656       8.85596564 
C      14.63618436      11.38134560      10.70051370 
C      20.08388020      11.11528548      15.74168029 
C      23.50893071      14.66727798      16.79294662 
C      21.07002289      19.96005111      18.55832882 
C      20.81718023      21.53417677      14.33754505 
C      23.34379858      16.36288603      11.45130361 
C      17.96645578      16.72894007      22.65217593 
C      21.85720759      14.63605848      20.44143956 
C      16.58778716      11.20264066      20.08852877 
C      19.88486020      13.62586868      11.86445108 
C      17.33145477       7.54992028      15.10082538 
H      12.03616614      11.16102478      15.41585274 
H      11.65189640      12.73957064      16.15980940 
H      11.44382492      11.23336986      17.11046562 
H      10.49144988      13.53627797      11.84949565 
H      10.58780273      15.22847732      12.43540857 
H       9.99602400      13.93770238      13.52567587 
H      12.58813760      12.44567059      21.83964485 
H      11.60420086      13.54424194      20.82805397 
H      12.06386172      14.02556978      22.49821823 
H       8.43358434      15.66310361      20.00683688 
H       9.90050289      16.68802071      19.87874703 
H       9.93185884      15.20901754      20.87433713 
H       8.02662813      19.53685944      14.79998530 
H       9.14510229      19.28052679      16.17141395 
H       7.44264377      18.71532757      16.27875747 
H      11.74987453      22.25243854      17.16065437 
H      13.00961651      21.21267313      17.91081449 
H      11.28002550      20.79628757      18.10609007 
H      13.16124889      20.64135097      21.15119191 
H      14.13064859      19.30172185      21.85240569 
H      12.34411895      19.31591098      22.04197843 
H      18.00398999      15.63473900      22.69216101 
H      17.88679764      17.13627941      23.66629127 
H      18.87972121      17.09972142      22.17373733 
H      16.07924587      23.59410642      22.77735123 
H      16.27593427      22.08186423      23.71014991 
H      14.99849681      22.20538309      22.46776851 
H      20.88252323      21.01213257      18.31986795 
H      21.21648279      19.39561227      17.63083063 
H      21.95648063      19.86698390      19.19658304 
H      20.87398525      22.62661031      14.26588216 
H      20.63636371      21.11227070      13.34319717 
H      21.76158560      21.14513188      14.73518791 
H      22.23347872      13.60685686      20.45952477 
H      21.99293812      15.08972984      21.43027397 
H      22.41091880      15.22191487      19.69891158 
H      24.57395628      14.63069686      16.53738066 
H      22.91720428      14.15693556      16.02670757 
H      23.34465652      14.17114608      17.75693296 
H      19.72092568      10.68394223      14.80147647 
H      19.41680420      10.82458945      16.56020375 
H      21.09697520      10.75062264      15.94788007 
H      16.87181461      10.16902595      20.31552291 
H      15.49726209      11.27905941      20.01151372 
H      16.94564094      11.86587064      20.88378973 
H      14.56557818      12.13398304       9.90656776 
H      13.83391402      11.54572757      11.42599167 
H      14.55789151      10.37732290      10.26840408 
H      17.24688435       6.90134387      14.22175158 
H      17.31862692       6.93756149      16.00999135 
H      18.26537611       8.11647937      15.05427406 
H      13.01130808      20.15701286      10.97423707 
H      12.10166837      20.48202045      12.47639427 
H      11.24742919      19.83097067      11.03522094 
H      16.08854632      24.13829736      12.84075984 
H      15.28144901      23.87096449      14.42532771 
H      14.30646610      23.98070279      12.92569801 
H      19.05891192      19.63237023       9.37297870 
H      17.31928809      19.60904273       9.80099942 
H      18.26555225      18.09110248       9.84650683 
H      19.85500049      13.26312243      10.83150778 
H      19.12098576      13.11989839      12.46575982 
H      20.87062324      13.44033305      12.30553669 
H      23.35354235      16.61674934      10.38509458 
H      22.52597189      15.66215275      11.64647840 
H      24.30198608      15.90802824      11.72459094 
H      17.18210967      24.67773826      15.66980501 
H      18.16614652      23.57540926      16.66712262 
H      17.60834025      25.14174053      17.34239655 
H      16.01052018      15.58541544       8.15691407 
H      14.31745367      15.05453566       8.41108784 
H      15.67471283      14.09418036       9.08938362 
