156
Properties=species:S:1:pos:R:3 i=91 optimized=T E=-1662.8338352979 pbc="F F F" jobid=36_24-Ag-30_6-000010-PBE
Ag      16.02920634      15.75913595      14.37371213 
Ag      15.93026854      18.42201437      15.80459973 
Au      17.82103999      16.32522113      16.75264113 
Ag      16.79176228      13.93657579      18.03050891 
Au      14.92947647      15.94817173      17.20813989 
Au      17.53214458      19.22977240      18.14455609 
Au      14.26977813      17.86385617      13.55233707 
Au      18.98637118      18.60427371      15.57008636 
Au      17.00914570      18.15332838      13.18247247 
Ag      19.12026589      16.20236132      14.14714370 
Au      15.17467065      13.22033080      15.62403413 
Ag      12.98481607      17.94397257      16.27604259 
Ag      15.74728939      21.03523149      16.83263336 
Ag      17.27339599      21.06133571      14.29235763 
Au      14.84089636      18.86968153      18.44091239 
Au      20.10760297      13.88500930      17.75986907 
Au      17.86883259      13.68021093      15.16171843 
Au      13.13155290      15.37294692      15.08399992 
Au      13.99412279      15.00090595      11.75041955 
Au      13.78296494      13.19343617      18.79250784 
Ag      17.37013453      15.60863915      11.53507572 
Au      16.72428897      16.48507588      19.32412515 
Au      12.20739631      15.61044351      17.71617246 
Au      13.36954159      16.39855644      20.34109904 
Au      19.81140628      16.98808593      19.50371267 
Au      13.75021060      20.81452762      14.65779954 
Au      20.63036989      18.59033167      12.08611659 
Au      16.14226006      13.27759011      12.98291796 
Ag      20.62165012      16.54482284      16.61361380 
Au       9.23030776      16.51619193      16.64738582 
Au      10.43627070      17.99429731      13.60992237 
Au      22.91303897      17.32751554      14.63460866 
Au      16.84035126      19.29568037      21.59642411 
Ag      16.51727930      22.20025949      19.46854416 
Au      16.86279329      10.42068222      17.00876869 
Ag      16.22428441      10.34363640      13.38679242 
S      16.44059465      16.98807951      21.69939811 
S      20.18244414      14.69377560      19.97101075 
S      22.91374443      18.13278694      12.42346154 
S      23.11106595      16.58668941      16.85397828 
S      18.47047182      19.40037032      11.66896965 
S      19.74070889      15.29310244      11.92271272 
S      15.39595026      16.00361292      10.15213923 
S      13.66629870      11.79939582      16.89475831 
S      13.87856141      14.17501173      20.94639359 
S      20.19350675      13.07278804      15.55718616 
S      12.27053335      18.06324401      12.15499026 
S      11.88358592      20.15254997      15.93451507 
S      12.48900676      13.94301068      13.22187225 
S       9.92578008      15.17120473      18.44663273 
S      12.82930825      18.62448270      19.80625807 
S      19.33480631      21.01560497      15.54134729 
S      19.59265314      19.33271493      19.47181671 
S      15.28120255      21.73720473      13.11260136 
S      15.75679610      23.41551316      17.51688364 
S      17.32163276      21.58905678      21.65325289 
S      17.62543141      11.71595590      18.80436831 
S      16.18222895      11.54996024      11.27787508 
S       8.43175498      17.76671556      14.82718931 
S      16.12543589       8.94758630      15.33012304 
C      17.31387133      24.15915215      16.87186725 
C      16.11107853      22.32378114      22.82740993 
C      15.13081603      23.53970305      13.44545390 
C      12.25067085      19.75848429      11.45684024 
C       8.13363193      19.43946503      15.52700785 
C      11.93557791      21.19569111      17.44416695 
C      13.12165867      19.60420808      21.33095409 
C       9.63790873      16.23741500      19.91566884 
C      12.34401231      13.52456958      21.72055551 
C      11.95226981      11.98702986      16.26903321 
C      10.80201214      14.40712123      12.67267329 
C      18.07428957      18.89009815       9.95226262 
C      15.61194657      14.72777576       8.84609738 
C      14.43920472      11.37356426      10.71526472 
C      20.25515108      11.24222350      15.67841173 
C      23.67532468      14.84595128      16.65603998 
C      21.01870351      19.94736581      18.49841399 
C      20.70005065      21.43201421      14.38718469 
C      23.22559215      16.63026704      11.41485455 
C      17.88299849      16.32311718      22.61935648 
C      21.96774847      14.67697622      20.40577344 
C      16.61015330      11.16856944      20.23401542 
C      19.98645044      13.47211786      11.96580474 
C      17.48736648       7.72735911      15.12673576 
H      11.91110438      11.52799858      15.27495755 
H      11.66762363      13.04315039      16.20186020 
H      11.28570259      11.45662846      16.95848702 
H      10.59620504      13.88347751      11.73204922 
H      10.70201612      15.48974438      12.53216739 
H      10.10056149      14.07329523      13.44648797 
H      12.49486454      12.45786574      21.92353258 
H      11.47929737      13.65530346      21.06251399 
H      12.18732878      14.06172400      22.66299321 
H       8.55795307      16.27978703      20.09694964 
H      10.03983999      17.24344458      19.76489891 
H      10.14382662      15.77432578      20.77131583 
H       7.79743339      20.08328288      14.70611073 
H       9.04637692      19.85063063      15.97007071 
H       7.34145723      19.35507799      16.27880924 
H      11.73406784      22.23450415      17.16201360 
H      12.90904316      21.12256439      17.94293992 
H      11.15564767      20.83046442      18.12222603 
H      13.00304608      20.66198992      21.06618380 
H      14.13094763      19.43286596      21.72754062 
H      12.36633671      19.32092385      22.07271966 
H      17.84236243      15.22977880      22.55595617 
H      17.79438639      16.64283436      23.66372901 
H      18.82609148      16.68135431      22.19089160 
H      16.22815492      23.41305422      22.78835361 
H      16.34600718      21.96630106      23.83633917 
H      15.08145351      22.05710175      22.57293957 
H      20.86400303      21.01898833      18.32991294 
H      21.09753963      19.43548236      17.53305247 
H      21.92388525      19.78337102      19.09353675 
H      20.69466433      22.51817958      14.23841378 
H      20.59011437      20.92139307      13.42279969 
H      21.64513972      21.12621310      14.85109159 
H      22.29850149      13.63300414      20.44556952 
H      22.07469294      15.13744198      21.39488120 
H      22.55728655      15.23685743      19.67251399 
H      24.71895553      14.85039986      16.32309033 
H      23.05275952      14.29828320      15.94235040 
H      23.60433600      14.35956010      17.63629370 
H      20.17144225      10.84847399      14.65815368 
H      19.43382336      10.85301046      16.29399190 
H      21.22287507      10.95955946      16.10798955 
H      16.87060643      10.13264461      20.47659497 
H      15.53927707      11.24912362      20.01327181 
H      16.85634646      11.82161532      21.07938473 
H      14.20699161      12.19809425      10.03042728 
H      13.73831646      11.40320155      11.55415781 
H      14.35463039      10.41575162      10.18874178 
H      17.22846505       7.07164591      14.28738165 
H      17.55690193       7.13451623      16.04575751 
H      18.44643112       8.21481862      14.93085898 
H      13.14976190      19.87197823      10.84061230 
H      12.25326834      20.51647790      12.24847914 
H      11.35421772      19.85780902      10.83453947 
H      15.95202576      24.04762409      12.92670073 
H      15.17901884      23.74569529      14.52065294 
H      14.17201923      23.88862668      13.04538998 
H      18.71455261      19.46575144       9.27432905 
H      17.02059690      19.12722000       9.76839385 
H      18.23989896      17.81639499       9.81049171 
H      19.99605971      13.10063510      10.93494109 
H      19.18482654      12.97889412      12.52769224 
H      20.94803556      13.26244634      12.44733885 
H      23.22481621      16.93399243      10.36173324 
H      22.44775922      15.87785491      11.58485091 
H      24.21226702      16.24001145      11.68694892 
H      17.09407467      24.61931423      15.90101157 
H      18.10079863      23.40913418      16.74026577 
H      17.64955434      24.93384611      17.57014399 
H      16.36038189      15.10239304       8.13757802 
H      14.65733240      14.58536916       8.32730389 
H      15.95698994      13.77763385       9.27017656 
