156
Properties=species:S:1:pos:R:3 i=111 optimized=T E=-1704.3822138281 pbc="F F F" jobid=36_24-Ag-61_1-000004-PBE
Au      16.10066434      15.76711860      14.45489416 
Au      16.07266336      18.37243973      15.90243248 
Ag      17.93517599      16.22205468      16.83053280 
Au      16.65512141      14.00452458      18.10972778 
Au      14.92937797      15.98816591      17.24062886 
Ag      17.71760522      19.13235099      18.10576886 
Ag      14.37244547      17.94703600      13.71105099 
Au      19.15425509      18.53110816      15.54942267 
Ag      17.20453734      18.10072137      13.29431057 
Au      19.22139143      16.08172388      14.19818639 
Ag      15.02998541      13.39553708      15.65206562 
Au      13.05041301      17.92956839      16.43806091 
Ag      15.84590112      20.96264770      16.81097680 
Ag      17.28485616      21.01162344      14.23838624 
Ag      14.96257829      18.85335653      18.52744112 
Au      20.12907113      13.81600161      17.71964918 
Ag      17.80224362      13.59315617      15.26334065 
Ag      13.04953286      15.53200087      15.02820986 
Ag      14.07101353      15.25625898      11.86356381 
Au      13.72756817      13.19134003      18.80035715 
Ag      17.34651089      15.67441570      11.55248553 
Ag      16.69388462      16.53101258      19.40307434 
Ag      12.22893099      15.57701439      17.82390302 
Ag      13.64690590      16.46100052      20.26017457 
Ag      19.71727816      16.95450020      19.29602334 
Au      13.78277726      20.80197611      14.55749741 
Au      20.73689906      18.63837540      12.13445131 
Ag      16.04121857      13.39164414      12.99322807 
Au      20.76401508      16.46051592      16.51242229 
Ag       9.47401208      16.22993136      16.77680729 
Ag      10.73138623      17.65302129      13.85179895 
Ag      22.92896013      17.25394371      14.64189715 
Au      16.90677080      19.40412194      21.57485676 
Ag      16.43934144      22.28292816      19.41326623 
Ag      16.68668068      10.79602272      16.67987686 
Au      16.15076182      10.41796584      13.11911890 
S      16.52314735      17.11021660      21.80837472 
S      20.17323393      14.64570609      19.92522577 
S      23.00237355      18.05482749      12.37944650 
S      23.15711040      16.46908568      16.93200651 
S      18.59188626      19.53088540      11.80182209 
S      19.67636962      15.15628067      12.00857414 
S      15.46293356      16.25224077      10.14933296 
S      13.57523098      11.80799505      16.90054758 
S      13.93006997      14.15857358      20.94917585 
S      20.16832862      12.84354087      15.57734477 
S      12.44287433      17.80642893      12.17480892 
S      11.97301870      20.06210121      15.88046438 
S      12.56537105      13.92575228      13.22730456 
S      10.01532879      15.00457749      18.76943823 
S      12.92955982      18.73671387      19.94327178 
S      19.27126131      20.94964720      15.62613269 
S      19.68665264      19.34976369      19.58774774 
S      15.31093804      21.69023192      12.99867451 
S      15.64376622      23.35265109      17.40456371 
S      17.34637858      21.70785246      21.55493897 
S      17.54848564      11.81915828      18.68856822 
S      16.16370350      11.69774207      11.14564756 
S       8.58219644      17.40015689      14.89643720 
S      16.01775948       9.12580496      15.06401675 
C      17.17323286      24.16670744      16.77474213 
C      16.17560805      22.43847646      22.77201624 
C      15.14853297      23.49767232      13.29572544 
C      12.21264362      19.42189801      11.32707002 
C       8.20716804      19.07254992      15.57079795 
C      11.97130587      21.14182883      17.36370423 
C      13.20216694      19.60478237      21.54088570 
C       9.71602475      16.26645404      20.08145158 
C      12.33335129      13.69484026      21.73221338 
C      11.85254545      11.91794905      16.27886072 
C      10.88099784      14.20401000      12.53712232 
C      18.15582529      19.20936701      10.04849883 
C      15.63451054      14.99796839       8.81262471 
C      14.44090329      11.52760486      10.52034295 
C      20.24455541      11.03082009      15.86864493 
C      23.68021822      14.71544280      16.73406392 
C      21.12369715      19.95943927      18.61700405 
C      20.70508204      21.46307249      14.59874986 
C      23.19525896      16.52048137      11.38373963 
C      18.00619704      16.46450860      22.68097024 
C      21.95693547      14.78918849      20.34777975 
C      16.50891867      11.12092487      20.03319879 
C      19.79068885      13.32620631      12.06447555 
C      17.41472424       7.93340041      14.96659853 
H      11.81538312      11.36498533      15.33331046 
H      11.56042475      12.95840703      16.09899744 
H      11.18451449      11.45716504      17.01417293 
H      10.76491360      13.56118803      11.65680135 
H      10.73129276      15.25080559      12.25029838 
H      10.14287070      13.92018498      13.29598312 
H      12.36649663      12.62795166      21.98115045 
H      11.49332444      13.88807507      21.05528908 
H      12.22376905      14.28268548      22.65081887 
H       8.63961978      16.45850692      20.14649746 
H      10.25337788      17.19975231      19.88414208 
H      10.06725886      15.85325782      21.03470706 
H       7.86385039      19.70085768      14.74083138 
H       9.09048306      19.53041250      16.02754833 
H       7.40535028      18.98071573      16.31133679 
H      11.64142165      22.14004346      17.05562336 
H      12.96723514      21.19406883      17.81771372 
H      11.26948744      20.71184747      18.08703438 
H      13.01886281      20.67339986      21.37593506 
H      14.22830564      19.46340298      21.90459008 
H      12.48832594      19.22158035      22.27848793 
H      17.95862267      15.37022883      22.64700771 
H      17.97416925      16.80924002      23.72027777 
H      18.92930886      16.80499260      22.19925026 
H      16.26564649      23.52923529      22.70963011 
H      16.46682415      22.10459535      23.77434731 
H      15.14174582      22.14320521      22.57197622 
H      21.00224733      21.03830357      18.47014650 
H      21.18298352      19.46541204      17.64081951 
H      22.03604563      19.76138411      19.19045985 
H      20.64513086      22.54916198      14.46149670 
H      20.70406437      20.96098922      13.62369017 
H      21.62277303      21.20987127      15.14221093 
H      22.38594262      13.78253626      20.40665833 
H      22.03022753      15.27510950      21.32802628 
H      22.49676551      15.38653187      19.60334871 
H      24.76035137      14.70715897      16.54746686 
H      23.15144373      14.22555422      15.91140134 
H      23.45928315      14.17891852      17.66468860 
H      20.02459289      10.53659284      14.91457858 
H      19.51982116      10.71114869      16.62613250 
H      21.25845023      10.76999344      16.19265696 
H      16.81562869      10.08030155      20.18897529 
H      15.44257006      11.16646584      19.78180178 
H      16.69070883      11.70358182      20.94325650 
H      14.33830390      12.19415016       9.65545118 
H      13.70922410      11.81236359      11.28365356 
H      14.27696975      10.49159544      10.20533745 
H      17.21832201       7.23509757      14.14518336 
H      17.44817164       7.38329282      15.91425493 
H      18.37111721       8.43716048      14.80078686 
H      13.02010049      19.53334624      10.59441258 
H      12.25444981      20.25101941      12.04254692 
H      11.24538836      19.41339462      10.81285669 
H      15.98493050      23.99596160      12.79213248 
H      15.16537620      23.72297339      14.36767532 
H      14.20206861      23.83866810      12.86103218 
H      18.85800504      19.75320624       9.40752182 
H      17.13804837      19.58473053       9.89154433 
H      18.18348758      18.13776183       9.82368308 
H      19.80365112      12.96874357      11.02819632 
H      18.94019757      12.88166915      12.59476398 
H      20.71905615      13.04792968      12.57446099 
H      23.16287172      16.79686295      10.32375226 
H      22.39654492      15.80324517      11.60122442 
H      24.17411314      16.08787645      11.61851112 
H      16.96086187      24.56722083      15.77633767 
H      18.00823598      23.46178163      16.70636040 
H      17.43565087      24.99146459      17.44617911 
H      16.40228863      15.34179681       8.10984996 
H      14.67486489      14.91390991       8.28977321 
H      15.92382685      14.02049686       9.21391834 
