156
Properties=species:S:1:pos:R:3 i=62 optimized=T E=-1636.3776411741 pbc="F F F" jobid=36_24-Ag-11_1-000007-PBE
Au      16.06603387      15.72827371      14.42676915 
Au      15.99648568      18.35085872      15.81223052 
Au      17.84825135      16.21061790      16.85380038 
Au      16.70825475      13.89875996      18.12964474 
Au      14.88423078      15.87072631      17.25771641 
Au      17.62929267      19.02171678      18.07738862 
Au      14.33481319      17.83223453      13.61204213 
Ag      19.01761650      18.59062530      15.50351565 
Ag      17.13655782      18.04523924      13.15360630 
Au      19.07413437      16.04175772      14.29357648 
Au      15.08755636      13.25633752      15.60940536 
Au      13.00568315      17.86723712      16.36299558 
Ag      15.93103459      20.97416969      16.86127396 
Au      17.49550837      21.31875273      14.41644459 
Au      14.89748585      18.84528321      18.46228906 
Au      20.19444431      13.70012044      17.74314258 
Au      17.84072910      13.51389380      15.21912999 
Au      13.03704818      15.37606568      15.06771313 
Au      13.88070443      14.89956876      11.75631387 
Au      13.70370100      13.15865687      18.82598233 
Au      17.37281004      15.60121724      11.28508041 
Au      16.68397867      16.42112816      19.41751319 
Au      12.14516345      15.55189946      17.75544884 
Ag      13.58212694      16.39904375      20.21311340 
Au      19.86408339      16.79654721      19.53452077 
Au      13.92761912      20.76139780      14.62944182 
Au      20.52077883      18.87944942      11.98532924 
Au      16.12757601      13.35473305      12.96729047 
Au      20.59307996      16.47037163      16.61791737 
Au       9.30405745      16.42069405      16.61552419 
Au      10.63746455      17.85476407      13.47443591 
Au      22.85681086      17.56482326      14.49674626 
Au      16.88994351      19.33581545      21.62258593 
Au      16.43804517      22.39468419      19.61432045 
Au      16.79940807      10.38042318      17.07488952 
Au      16.21387451      10.18202876      13.45877831 
S      16.43836064      17.04324784      21.76060856 
S      20.28785727      14.50113764      19.95830832 
S      22.81759369      18.45195915      12.32134169 
S      23.01213876      16.73595048      16.69486087 
S      18.31874528      19.55309726      11.56323313 
S      19.61510200      15.42803022      11.99565322 
S      15.30267027      15.92915266      10.18223831 
S      13.65018559      11.78888844      16.90125086 
S      13.78387794      14.10856341      20.98805942 
S      20.14670166      12.82343510      15.56162191 
S      12.48225529      18.05746867      12.03492074 
S      12.03231975      20.04017471      15.83527929 
S      12.39999520      13.87368893      13.26653014 
S       9.87263967      15.20998518      18.56067995 
S      12.92490473      18.70749899      19.85276749 
S      19.46866525      21.04499421      15.64799190 
S      19.58407489      19.13837578      19.53321769 
S      15.52948518      21.71514309      13.17262742 
S      15.62306306      23.33497920      17.62636726 
S      17.34534335      21.64094288      21.64649211 
S      17.52876530      11.72293872      18.85121119 
S      16.22167702      11.43518449      11.46623359 
S       8.62460153      17.55056985      14.66931304 
S      16.09777361       8.87836331      15.40266383 
C      17.07206073      24.27349090      16.98659247 
C      16.22802571      22.33140791      22.93231501 
C      15.21081913      23.51340865      13.37603370 
C      12.42211510      19.79392458      11.44614958 
C       8.22734551      19.24177709      15.26883559 
C      11.99315370      21.10104145      17.33058093 
C      13.24299491      19.65057550      21.39475230 
C       9.65118301      16.44185586      19.90853226 
C      12.13686069      13.66456438      21.67228144 
C      11.93334475      11.89837711      16.26672951 
C      10.70676151      14.30474794      12.70956039 
C      17.98853934      18.98059536       9.84868071 
C      15.42636265      14.74085995       8.78654932 
C      14.51074892      11.22052100      10.82707728 
C      20.17023916      10.99681706      15.72708893 
C      23.66132040      15.03087966      16.46227617 
C      21.02845992      19.80461786      18.62073163 
C      20.83844130      21.51226250      14.51789129 
C      23.14410837      16.98983252      11.25608906 
C      17.85552382      16.31460459      22.66960641 
C      22.07494913      14.51584933      20.38573706 
C      16.50150105      11.19779010      20.27805403 
C      19.96410519      13.62532564      11.97721102 
C      17.46774834       7.66344029      15.24478075 
H      11.91512603      11.43362512      15.27467108 
H      11.60421015      12.94084935      16.19418241 
H      11.28724596      11.34316005      16.95622561 
H      10.50079491      13.74777956      11.78836228 
H      10.59985965      15.38303487      12.53491825 
H      10.01207673      13.99194933      13.49827299 
H      12.13139390      12.59345977      21.90488365 
H      11.33682340      13.88617990      20.95807485 
H      11.98754384      14.24027002      22.59315785 
H       8.57700329      16.61371791      20.04004270 
H      10.16404834      17.38167571      19.68307030 
H      10.07214265      16.01227936      20.82544111 
H       7.92570597      19.83729532      14.39951920 
H       9.09445613      19.70330572      15.75162810 
H       7.39102920      19.16413606      15.97208560 
H      11.72355920      22.11522722      17.01576486 
H      12.96255375      21.10508193      17.84070122 
H      11.23205997      20.69534964      18.00644225 
H      13.20288292      20.72003276      21.15581942 
H      14.22549163      19.41008439      21.82090071 
H      12.45148577      19.40027460      22.11097971 
H      17.73788494      15.22531534      22.64501748 
H      17.81762388      16.67382185      23.70406851 
H      18.80653045      16.59377162      22.20071493 
H      16.33063858      23.42241086      22.91419590 
H      16.55479366      21.94452934      23.90428481 
H      15.18571996      22.05373612      22.75263124 
H      20.84066028      20.86930015      18.44266967 
H      21.16940276      19.28911815      17.66463289 
H      21.91357443      19.67588245      19.25365053 
H      20.84292334      22.60122894      14.39844625 
H      20.73922984      21.02342396      13.54006044 
H      21.77281723      21.18628360      14.99102626 
H      22.42676539      13.47816925      20.40921918 
H      22.17950472      14.96489702      21.38034199 
H      22.65309852      15.09465172      19.65889041 
H      24.72108752      15.10261776      16.19255918 
H      23.10716659      14.49368199      15.68738331 
H      23.55309355      14.49788550      17.41431612 
H      19.98925360      10.57825142      14.72962009 
H      19.39304249      10.64587553      16.41803632 
H      21.16260275      10.69813597      16.08368307 
H      16.79049059      10.17572210      20.54730677 
H      15.43307779      11.24415057      20.03698393 
H      16.71669626      11.88034922      21.10809185 
H      14.35389629      11.95379475      10.02721664 
H      13.76872321      11.38344857      11.61388021 
H      14.42269372      10.20469709      10.42546189 
H      17.23049160       6.99722832      14.40756685 
H      17.51129055       7.08723094      16.17605877 
H      18.42742975       8.15658296      15.06756635 
H      13.33370080      19.97677962      10.86579055 
H      12.37641388      20.49835951      12.28508170 
H      11.54055960      19.90549123      10.80478216 
H      16.02602689      24.05863727      12.88689810 
H      15.15326606      23.78573699      14.43462581 
H      14.26061265      23.74536106      12.88111818 
H      18.61325833      19.55803247       9.15853052 
H      16.92956839      19.17177717       9.63970409 
H      18.18988907      17.90868093       9.73933230 
H      20.05605620      13.30886770      10.93217046 
H      19.16472717      13.06507298      12.47474096 
H      20.90950327      13.46369470      12.50717932 
H      23.10181235      17.32633569      10.21380349 
H      22.39995894      16.20468828      11.42230345 
H      24.15026216      16.62157537      11.48430860 
H      16.79914297      24.67186128      16.00206578 
H      17.95247300      23.63187994      16.88156709 
H      17.28649797      25.10294898      17.66884749 
H      16.14692337      15.14311377       8.06487948 
H      14.43813834      14.66367776       8.31903864 
H      15.76012770      13.75720535       9.13139597 
