156
Properties=species:S:1:pos:R:3 i=74 optimized=T E=-1647.7194268583 pbc="F F F" jobid=36_24-Ag-19_4-000010-PBE
Ag      16.12839304      15.72963107      14.33567679 
Au      16.02412761      18.38212592      15.75001187 
Au      17.88548375      16.26193979      16.77805311 
Au      16.85849289      13.95535939      18.05623702 
Ag      14.96287076      15.94188939      17.24759792 
Au      17.71612489      19.02378293      17.95330194 
Au      14.34679004      17.86436893      13.56957690 
Ag      19.08863087      18.65119785      15.35686445 
Au      17.10456556      18.15046250      13.12527304 
Au      19.12729697      16.07218072      14.24383083 
Ag      15.15384789      13.33149824      15.65515917 
Au      13.03568171      17.92422953      16.29394244 
Au      15.94638492      20.92153634      16.89372589 
Au      17.52472037      21.39861366      14.38484053 
Ag      14.94842592      18.74171000      18.46957745 
Ag      19.93540364      13.86249441      17.75120750 
Au      17.89162609      13.53774523      15.14557824 
Au      13.10537013      15.42327046      15.09138048 
Au      13.94473710      14.87931637      11.84062975 
Au      13.79486903      13.34358137      18.82728858 
Au      17.39485041      15.59538310      11.31344280 
Au      16.84230100      16.45379164      19.37180125 
Au      12.17548597      15.67494625      17.73191174 
Au      13.33478455      16.60887377      20.32460690 
Au      19.92100774      16.85464536      19.55484676 
Au      13.97895478      20.83306331      14.58808312 
Au      20.61121082      18.83808116      12.08225203 
Au      16.15806644      13.23596621      13.00796359 
Au      20.63042546      16.53943901      16.58242517 
Au       9.31150875      16.35000885      16.61992714 
Au      10.61412467      17.80394533      13.50434217 
Au      22.92840468      17.51535388      14.60274603 
Au      16.82985628      19.33212519      21.67268673 
Au      16.34449869      22.37885588      19.74948025 
Ag      16.45896718      10.45809588      16.74587023 
Au      16.01879745      10.08459985      13.25885459 
S      16.47408140      17.01978653      21.71715474 
S      20.30988549      14.57558827      20.04052493 
S      22.90792865      18.44085203      12.44445404 
S      23.05653794      16.61979365      16.77903160 
S      18.41867652      19.49473211      11.57466345 
S      19.65810869      15.40364004      11.95962819 
S      15.31406491      15.92005494      10.22743059 
S      13.73963432      11.81891122      17.03579722 
S      13.82673854      14.38939516      20.95519028 
S      20.17386451      12.81203787      15.57770309 
S      12.44362439      17.99591591      12.04791898 
S      12.09420302      20.12388810      15.81756650 
S      12.52618396      13.79914623      13.37651892 
S       9.92458684      15.11679148      18.53409240 
S      12.84203075      18.84412149      19.82223853 
S      19.51571303      21.10969932      15.59169376 
S      19.57907184      19.19051914      19.51085003 
S      15.57393713      21.75519533      13.09961456 
S      15.56454110      23.19443314      17.68909617 
S      17.22134387      21.64881212      21.79587860 
S      17.45834960      11.66833511      18.58235842 
S      16.04286524      11.44155088      11.33272570 
S       8.60677612      17.52786204      14.71246472 
S      15.88287452       8.72592953      15.15607549 
C      16.98952538      24.16591324      17.04982264 
C      16.04908922      22.26707735      23.06933538 
C      15.23258688      23.55616655      13.23230103 
C      12.36743028      19.72884110      11.44925321 
C       8.26583358      19.21587585      15.35560250 
C      12.06732518      21.18908793      17.30883653 
C      13.16618387      19.78727963      21.36444289 
C       9.58662073      16.28823602      19.91106656 
C      12.26846648      13.74923618      21.68916096 
C      12.01363190      11.78774878      16.41362157 
C      10.80242740      14.17537530      12.87069931 
C      18.14120328      18.85622263       9.87674859 
C      15.42308269      14.71428693       8.84576527 
C      14.30419669      11.34018809      10.74351310 
C      20.12633483      10.99362197      15.83661922 
C      23.59121492      14.88449488      16.47784281 
C      21.02438594      19.88705635      18.62335156 
C      20.86630066      21.62686574      14.45959245 
C      23.25404230      16.99558879      11.36159573 
C      17.91535785      16.36520964      22.64785711 
C      22.12766535      14.52962421      20.30767774 
C      16.54047277      11.18026781      20.09329847 
C      19.99385892      13.59989367      11.96003387 
C      17.35265426       7.62258587      15.07032660 
H      12.01142045      11.20802762      15.48365726 
H      11.65897994      12.80514658      16.21586830 
H      11.37841189      11.30199396      17.16198240 
H      10.58181558      13.59899771      11.96491107 
H      10.66246852      15.24751560      12.68310518 
H      10.14191261      13.85753910      13.68627158 
H      12.41936949      12.69068527      21.93101899 
H      11.43046526      13.85109169      20.99170054 
H      12.06900388      14.31299946      22.60763745 
H       8.50125399      16.34417324      20.05165319 
H       9.99738159      17.28065374      19.70391620 
H      10.06034200      15.88851708      20.81558260 
H       7.96476536      19.83821449      14.50514264 
H       9.15267057      19.64438301      15.83291462 
H       7.44007080      19.14398917      16.07181719 
H      11.78896877      22.20035031      16.99183083 
H      13.04496797      21.20509863      17.80229928 
H      11.31619845      20.78341792      17.99537575 
H      13.14536498      20.85210882      21.10032166 
H      14.14878240      19.53963880      21.78699767 
H      12.37470592      19.56898592      22.08977139 
H      17.87167673      15.27139819      22.59505471 
H      17.82425862      16.69535618      23.68856355 
H      18.86053050      16.71271805      22.21507161 
H      16.11453011      23.36095781      23.08247272 
H      16.36742374      21.86541023      24.03808568 
H      15.02173198      21.95784069      22.85796544 
H      20.81043368      20.94166851      18.41724444 
H      21.20613675      19.35814778      17.68144572 
H      21.89588312      19.79771247      19.28157018 
H      20.83961533      22.71654771      14.34958027 
H      20.77775113      21.14526208      13.47771403 
H      21.81250596      21.32509230      14.92516846 
H      22.44667511      13.48100806      20.29106193 
H      22.34738041      14.96428110      21.28973248 
H      22.65843016      15.09428290      19.53441097 
H      24.64305907      14.90067017      16.17130856 
H      22.97766430      14.40147803      15.71177431 
H      23.48807099      14.33394158      17.42037193 
H      19.79787413      10.51796491      14.90521797 
H      19.44982266      10.71676621      16.65194830 
H      21.14497709      10.66635302      16.07816970 
H      16.75591156      10.12406984      20.29217893 
H      15.46138627      11.32695124      19.96223757 
H      16.89677654      11.79565110      20.92689675 
H      14.14603352      12.13713731      10.00713757 
H      13.59741019      11.46918127      11.56811656 
H      14.16248624      10.36112017      10.27180572 
H      17.22308115       6.93362723      14.22818401 
H      17.39311414       7.05334407      16.00629656 
H      18.27994036       8.18836915      14.94515301 
H      13.25596028      19.90056596      10.83092891 
H      12.36276532      20.43825239      12.28564659 
H      11.46115714      19.84294592      10.84413004 
H      16.04785626      24.09269895      12.73361326 
H      15.15721969      23.87223842      14.27712532 
H      14.28646220      23.75903892      12.71716494 
H      18.79244930      19.41321481       9.19368321 
H      17.09015261      19.03943777       9.62586253 
H      18.34916835      17.78149520       9.81499559 
H      20.07572231      13.27154063      10.91789046 
H      19.19361484      13.05312151      12.47146467 
H      20.93964609      13.43380121      12.48783023 
H      23.21907132      17.34588859      10.32364358 
H      22.51401722      16.20306449      11.51049388 
H      24.26045079      16.63112633      11.59474298 
H      16.77850969      24.42320432      16.00521216 
H      17.91809821      23.58920623      17.09614441 
H      17.07605063      25.07916454      17.64906657 
H      16.13352657      15.10990296       8.11046061 
H      14.43002503      14.62785798       8.39004720 
H      15.76607333      13.73648966       9.19947574 
