156
Properties=species:S:1:pos:R:3 i=124 optimized=T E=-1730.8043721539 pbc="F F F" jobid=36_24-Ag-80_6-000005-PBE
Ag      16.12165368      15.77256968      14.41009320 
Ag      16.06942772      18.42246807      15.80006950 
Ag      17.90002355      16.24480366      16.76988479 
Ag      16.80258161      13.94835319      18.00566939 
Ag      14.97807193      15.95597554      17.12463671 
Ag      17.70791901      19.01288622      18.08828847 
Ag      14.37174501      17.85906462      13.56232057 
Au      19.15633808      18.51735612      15.52987473 
Au      17.12639047      18.10132889      13.19357172 
Ag      19.15429066      16.10612245      14.16344518 
Ag      15.06348300      13.32461160      15.55348905 
Ag      13.04639426      17.99569569      16.24760378 
Ag      15.98796524      20.98309542      16.96304104 
Ag      17.27174169      21.01323114      14.28164985 
Ag      14.94899700      18.77144172      18.40526253 
Au      20.02982761      13.81959318      17.67398680 
Ag      17.79677239      13.58119538      15.19175373 
Au      13.08257555      15.50343357      15.04107672 
Ag      14.00063587      15.30077795      11.88569423 
Ag      13.92213593      13.31622549      18.54113680 
Au      17.45427922      15.64269037      11.28338172 
Ag      16.67233163      16.48072032      19.32010076 
Ag      12.21915439      15.64906260      17.70455480 
Ag      13.70976444      16.27949091      20.16757225 
Ag      19.65068404      16.82723329      19.32687913 
Ag      14.04889112      20.63060032      14.68497189 
Ag      20.76572703      18.35386382      12.45366224 
Ag      16.12437536      13.45694039      12.87899962 
Ag      20.72827399      16.44303818      16.54924320 
Ag       9.41949985      16.31683258      16.97202214 
Ag      10.65203225      17.84857361      14.08961027 
Ag      23.02751200      17.18734744      14.82978281 
Ag      16.88723585      19.73526955      21.12874446 
Au      16.32860590      22.77315408      19.31848903 
Au      16.83200549      10.51429396      16.81904383 
Ag      16.15744671      10.52237369      13.20007387 
S      16.42914729      17.41550856      21.60216697 
S      20.04271154      14.50636388      19.93057117 
S      23.13340786      17.92799688      12.56605313 
S      23.14873638      16.42976344      17.10626337 
S      18.69523627      19.43213841      11.86503221 
S      19.68565760      15.19496550      11.90976878 
S      15.44585071      16.20546401      10.17163703 
S      13.56140647      11.74709099      16.74018029 
S      14.14209570      14.01364855      20.85480666 
S      20.20724375      12.99095543      15.47706688 
S      12.25829363      17.94537216      12.29674272 
S      12.01495843      20.22224205      15.93207666 
S      12.47144367      13.98949625      13.22110263 
S      10.11857872      14.91830037      18.79626987 
S      12.89329000      18.51193442      19.76311376 
S      19.29985931      20.95515641      15.62316948 
S      19.59299099      19.20902471      19.69709078 
S      15.37194460      21.61639217      12.91103310 
S      15.62533406      23.46198426      17.18150370 
S      17.13843192      22.12722631      21.41544199 
S      17.53130518      11.67459295      18.72650090 
S      16.04486864      11.70135269      11.11111469 
S       8.52866589      17.66287572      15.21784823 
S      16.11841390       9.07976029      15.10214463 
C      17.12918598      24.26636870      16.48901343 
C      15.84211343      22.63077216      22.61927265 
C      15.05085950      23.40734208      13.19168802 
C      12.09178872      19.60272710      11.52078470 
C       8.29477956      19.30781082      16.01072397 
C      12.10915077      21.23382280      17.46262412 
C      13.10059660      19.42395309      21.34916681 
C       9.86796946      16.01769730      20.25348561 
C      12.55790095      13.38928285      21.55437683 
C      11.81459298      11.97882688      16.22128539 
C      10.77251801      14.40544172      12.65404894 
C      18.39717367      19.07839148      10.08988809 
C      15.40765166      14.96404297       8.81549855 
C      14.27153760      11.50486614      10.64817443 
C      20.34692374      11.16694008      15.65867006 
C      23.70773851      14.68513529      16.90214212 
C      21.03112045      19.96032210      18.83496868 
C      20.67428869      21.49356029      14.52552236 
C      23.36638016      16.37544572      11.60384897 
C      17.82695444      16.82404242      22.64039095 
C      21.82116371      14.56487508      20.39643115 
C      16.42731224      11.03488139      20.04970324 
C      19.86257196      13.36902812      11.90176129 
C      17.51126640       7.90482959      14.84838117 
H      11.65828186      11.40812209      15.29902368 
H      11.59029259      13.03436351      16.03022511 
H      11.16100774      11.59598952      17.01253782 
H      10.54916145      13.76784639      11.79021513 
H      10.68887662      15.45901925      12.36734069 
H      10.07057022      14.18266980      13.46572757 
H      12.66091107      12.31190883      21.72901278 
H      11.72239014      13.56619490      20.86702732 
H      12.37169608      13.89606154      22.50807042 
H       8.79215951      16.14666896      20.41480556 
H      10.34792852      16.99171614      20.11330575 
H      10.30943886      15.52680652      21.12935057 
H       7.94570079      20.00489741      15.24023426 
H       9.23197719      19.68197014      16.43606766 
H       7.53199159      19.21798564      16.79147095 
H      11.91778995      22.27910330      17.19624094 
H      13.09372636      21.14605620      17.93748281 
H      11.34568853      20.87508533      18.16147337 
H      13.08891133      20.49780687      21.12875993 
H      14.03984997      19.15899670      21.84676104 
H      12.25534866      19.17473470      22.00099543 
H      17.75739216      15.73340988      22.71810072 
H      17.73047923      17.27226303      23.63564131 
H      18.79280259      17.09973304      22.20231241 
H      15.80648255      23.72534593      22.65711483 
H      16.13352633      22.24006161      23.60123758 
H      14.85841861      22.23857418      22.34650801 
H      20.91335832      21.04912323      18.87379958 
H      21.06901643      19.63887325      17.78839600 
H      21.94787517      19.66351005      19.35541051 
H      20.68014395      22.59016073      14.51661776 
H      20.54611343      21.11777681      13.50468855 
H      21.61882557      21.12549841      14.94198019 
H      22.21777792      13.54349669      20.40207401 
H      21.88299366      14.98735034      21.40642240 
H      22.39274364      15.19119069      19.70183019 
H      24.76155978      14.68773282      16.60263651 
H      23.10784509      14.15046928      16.15929479 
H      23.60593812      14.17760976      17.86880693 
H      20.33061942      10.74172692      14.64756621 
H      19.51095007      10.75995438      16.24197357 
H      21.30024949      10.92825953      16.14251426 
H      16.74283222      10.01556303      20.29761806 
H      15.37830542      11.03797953      19.73403008 
H      16.54425451      11.68818449      20.92163025 
H      14.07596945      12.14231694       9.77749064 
H      13.60377767      11.80229805      11.46305667 
H      14.08960935      10.45889439      10.37843576 
H      17.25599111       7.26213531      13.99781810 
H      17.61436268       7.29237677      15.75122512 
H      18.45216196       8.42443984      14.64697865 
H      12.89086269      19.71419538      10.77949561 
H      12.17920445      20.40026148      12.26698447 
H      11.11554995      19.65664577      11.02636105 
H      15.85578289      23.98541331      12.72358344 
H      14.99755115      23.64360249      14.26019666 
H      14.09605291      23.66436854      12.71827725 
H      19.16920203      19.59255524       9.50617871 
H      17.40795619      19.46998764       9.82710918 
H      18.42723518      18.00044056       9.89232353 
H      19.76685746      13.01159048      10.87094872 
H      19.10444176      12.89434571      12.53608836 
H      20.85888690      13.13335854      12.29305794 
H      23.33373485      16.63189235      10.53870152 
H      22.58090494      15.64476140      11.82150292 
H      24.34894995      15.95686354      11.84681265 
H      16.92585100      24.49641038      15.43615155 
H      18.00097380      23.60741759      16.55152292 
H      17.31778218      25.19559198      17.03736251 
H      16.14489577      15.25418758       8.05820977 
H      14.40412692      14.97724860       8.37481189 
H      15.64216365      13.96234433       9.19318865 
