411
Energy =  -1838.7873520434
 Au        23.2925018994       20.8054860020       21.1724438717
 Au        22.4435750031       17.3959493931       19.2489749561
 Au        22.4076271032       24.1969087324       20.5337577812
 Au        20.6523760108       21.7967503558       19.9685397867
 Au        19.9325487609       18.8914710335       18.3332994814
 Au        20.5554242941       16.7322920944       16.3071077497
 Au        19.8303454176       25.4921500974       22.0851643655
 Au        20.4743648795       21.9824198882       22.7414570043
 Au        20.1271840558       18.7554946632       22.0275452783
 Au        19.1365313475       16.6007395273       19.7040143114
 Au        17.4349024597       15.8074487702       16.5996736717
 Au        17.8298866492       23.5363609627       24.2377226864
 Au        18.3986516795       22.9057314380       21.2371423765
 Au        18.3070869457       20.1638815722       20.3486327990
 Au        17.2240175164       18.1724812614       18.5625868639
 Au        15.8744282968       15.6329175650       19.7627805946
 Au        15.7245879569       21.2723035982       19.5234311268
 Au        18.0631816130       20.2424912439       23.2450866548
 Au        17.4605149487       17.8442201825       21.8806886306
 Au        20.3533806798       19.1361313625       24.9830067612
 Au        19.5898847890       16.0925824716       23.2618768524
  S        24.2583589219       22.9478341788       21.3060871644
  S        22.5703205515       18.5509055206       21.3167973376
  S        22.5238475715       15.9770179431       17.3726060191
  S        20.6973617932       25.7088357814       19.8864472191
  S        21.4522877183       20.7453854239       17.9279355019
  S        18.5866686523       17.2111476432       15.0712884482
  S        16.0538485514       23.2986914682       20.7003007333
  S        15.0572663043       19.2802507279       18.4346195895
  S        19.2081995594       25.4498440888       24.3607816267
  S        16.3813787566       21.6835589106       24.2241737831
  S        15.2117092448       17.0042522251       21.5548467850
  S        16.4343441278       14.1813011605       17.9860564358
  S        21.7822735276       20.9749830094       24.5351832255
  S        19.0745971605       17.1488539560       25.3437820449
  S        20.3161844531       15.1088517179       21.2302642082
  C        25.5706228237       23.0503618234       19.9833118957
  C        26.0931543180       24.5022551844       19.9650294279
  H        26.4481842656       24.7850221936       20.9670346280
  H        25.2656324012       25.1821538986       19.7078552607
  C        27.2374327603       24.6248356762       18.9333768552
  H        27.5996309423       25.6638788959       18.9264734666
  C        26.7111318162       24.2456500617       17.5346483705
  H        27.5144004310       24.3490306186       16.7895651456
  H        25.9035017477       24.9308693878       17.2356746965
  C        26.1915957278       22.7937962526       17.5588147606
  H        25.8052002685       22.5193209125       16.5654738393
  C        25.0481285055       22.6735462533       18.5898676070
  H        24.2115188766       23.3388996666       18.3256235011
  H        24.6421062741       21.6502935022       18.6106673661
  C        26.7206050761       22.1027069133       20.3808696701
  H        26.3427213592       21.0691121549       20.4176977986
  H        27.0827058770       22.3549341681       21.3884390408
  C        28.3861738380       23.6749579692       19.3273954496
  H        29.2151846261       23.7673668447       18.6095696534
  H        28.7838403555       23.9507652612       20.3157505978
  C        27.8662058930       22.2236624259       19.3499826291
  H        28.6793122639       21.5417083161       19.6406922116
  C        27.3405843854       21.8433415892       17.9516365931
  H        26.9851934463       20.8013054849       17.9510860649
  H        28.1542392863       21.9066479715       17.2134160354
  C        23.9583329617       17.6668558741       22.2667038564
  C        24.1400693078       18.3201795386       23.6430480918
  H        23.2062503565       18.2480431458       24.2206413931
  H        24.3590151030       19.3921952737       23.5238291420
  C        25.2945704904       17.6097901136       24.3896463338
  H        25.4159132391       18.0853840571       25.3744507824
  C        24.9550202208       16.1170623033       24.5665393474
  H        25.7662583693       15.6072883607       25.1079372274
  H        24.0421148468       16.0056616347       25.1698685398
  C        24.7571838951       15.4713026404       23.1813824269
  H        24.4923520783       14.4096456071       23.2976558989
  C        23.6033794465       16.1837910106       22.4359809493
  H        23.4371988292       15.7225743005       21.4505621175
  H        22.6623249633       16.0834416547       22.9974034503
  C        25.2548360577       17.8037220998       21.4486317270
  H        25.1069590421       17.3607331852       20.4510749563
  H        25.4863294455       18.8709495000       21.3049398423
  C        26.5974744454       17.7461585056       23.5777885584
  H        26.8623279472       18.8077704641       23.4607006602
  H        27.4286390541       17.2622882517       24.1126352033
  C        26.4061054550       17.0924727622       22.1949934581
  H        27.3266766952       17.1966235633       21.6011887070
  C        26.0582225330       15.6004929715       22.3653513982
  H        25.9369848562       15.1256135808       21.3801290831
  H        26.8795012658       15.0772972708       22.8779966878
  C        23.9620336341       16.5285597887       16.3193736864
  C        25.2614797000       16.1887122263       17.0776087553
  H        25.2866054654       16.7503499717       18.0243768022
  H        25.2781749665       15.1185825137       17.3313780244
  C        26.4800588095       16.5539064235       16.1994366478
  H        27.4009306804       16.3108792646       16.7504784669
  C        26.4468373812       18.0609221186       15.8770093100
  H        26.5038871294       18.6483854015       16.8063790469
  H        27.3216057848       18.3352175500       15.2682836906
  C        25.1463402121       18.3955842787       15.1189689104
  H        25.1127368307       19.4728691236       14.8961616170
  C        23.9291887218       18.0289599414       15.9961094961
  H        23.9285698939       18.6092235584       16.9318831583
  H        22.9872921171       18.2665197399       15.4776440498
  C        23.9120983392       15.7155295844       15.0086806912
  H        23.9122299521       14.6391521668       15.2353787079
  H        22.9717371042       15.9378004525       14.4800237891
  C        26.4287969143       15.7453228165       14.8877230913
  H        27.3028198618       15.9841321370       14.2631262541
  H        26.4730854737       14.6673692824       15.1047616275
  C        25.1292684884       16.0812176737       14.1291686954
  H        25.0816984873       15.4987573212       13.1967780059
  C        25.0952137353       17.5883793560       13.8059338205
  H        25.9479500022       17.8547659591       13.1633472297
  H        24.1801006464       17.8347306144       13.2464376452
  C        21.5112527907       27.3934617027       19.8107126608
  C        22.4180962152       27.6870660582       21.0159719114
  H        21.8253340434       27.6213845162       21.9421743337
  H        23.1981241026       26.9118779433       21.0821422354
  C        23.0476765166       29.0893579278       20.8638942236
  H        23.6943105623       29.2850623878       21.7322257377
  C        23.8839539727       29.1393423569       19.5692361112
  H        24.6982871058       28.4004231368       19.6167809273
  H        24.3524856837       30.1290034671       19.4590818387
  C        22.9738863760       28.8485541246       18.3593587070
  H        23.5665699649       28.8731584558       17.4326098924
  C        22.3456846141       27.4445259697       18.5140474014
  H        21.7074597969       27.2128598961       17.6482465509
  H        23.1297741289       26.6725996785       18.5565164668
  C        20.3935576593       28.4538677120       19.7403183527
  H        19.7269752953       28.2409152324       18.8912780976
  H        19.7835418059       28.4000212694       20.6554523136
  C        21.9301128285       30.1496128787       20.7963892962
  H        22.3669473297       31.1556506930       20.7063297727
  H        21.3399256858       30.1362017420       21.7253178052
  C        21.0209098413       29.8581772254       19.5863194144
  H        20.2140071754       30.6046710915       19.5374409197
  C        21.8549239955       29.9070869992       18.2903970902
  H        22.2912667116       30.9089552991       18.1603270300
  H        21.2104403757       29.7209840967       17.4180056713
  C        20.8409112013       21.7209537653       16.4623343563
  C        21.6568883476       23.0291460907       16.3969193974
  H        21.4845140047       23.6169143434       17.3118516501
  H        22.7308674238       22.7941464439       16.3567039552
  C        21.2400061297       23.8363611904       15.1464297604
  H        21.8253189508       24.7679306915       15.1142021671
  C        21.5151063733       23.0021095912       13.8794303860
  H        21.2381860732       23.5754282004       12.9816313676
  H        22.5897365065       22.7780087694       13.7994550550
  C        20.7034209231       21.6929113814       13.9432303705
  H        20.9033052804       21.0857584107       13.0471829794
  C        21.1206188454       20.8869798430       15.1943653212
  H        22.1905140873       20.6355336424       15.1449919573
  H        20.5637690016       19.9386347417       15.2468674563
  C        19.3443433360       22.0513467153       16.5412529832
  H        18.7672966370       21.1171643116       16.6155748711
  H        19.1442293426       22.6222544378       17.4606155131
  C        18.9264093852       22.8573746269       15.2919495138
  H        17.8520248296       23.0879006901       15.3604078574
  C        19.7369793945       24.1677629620       15.2297082852
  H        19.4320694356       24.7610165164       14.3541840078
  H        19.5363972724       24.7786822774       16.1232179927
  C        19.1997273164       22.0217095908       14.0250877645
  H        18.8855955118       22.5780081096       13.1288107921
  H        18.6130268959       21.0906664931       14.0531278281
  C        18.7420796619       16.2416475552       13.4769249872
  C        19.7432579980       16.9956944835       12.5772042508
  H        19.4149746488       18.0371917459       12.4423121170
  H        20.7257608259       17.0256510086       13.0734366206
  C        19.8472412721       16.2825603737       11.2097095509
  H        20.5635998749       16.8281635082       10.5773301535
  C        20.3344712850       14.8355463242       11.4222465531
  H        21.3316113230       14.8364971560       11.8882314273
  H        20.4322107218       14.3244804133       10.4525377498
  C        19.3314028189       14.0830776938       12.3199491403
  H        19.6797357852       13.0524929212       12.4841617102
  C        19.2256459327       14.7980673447       13.6851154045
  H        20.2007492421       14.8109552492       14.1977129734
  H        18.5236065104       14.2713126924       14.3507935493
  C        17.3577133989       16.2247707789       12.7975155043
  H        16.9935097023       17.2540398567       12.6616287841
  H        16.6382871540       15.7078055804       13.4514443981
  C        18.4620739323       16.2658372320       10.5327742103
  H        18.1132353204       17.2948348367       10.3579980117
  H        18.5291240615       15.7772857564        9.5489599965
  C        17.4607077540       15.5112093589       11.4301523723
  H        16.4676801005       15.5058625839       10.9562601603
  C        17.9468539791       14.0638909105       11.6415145178
  H        17.2282988390       13.5102621556       12.2648629884
  H        18.0054629081       13.5408070790       10.6750782009
  C        15.8352316119       24.6600320303       19.4439721812
  C        16.1606220496       25.9935121212       20.1457269406
  H        17.2110434065       25.9851480409       20.4776742875
  H        15.5351594409       26.1021563195       21.0437650379
  C        15.9101827737       27.1671210949       19.1722495252
  H        16.1522780875       28.1105908918       19.6848340294
  C        16.8075090182       27.0038817382       17.9295563260
  H        16.6514403333       27.8453039117       17.2377039683
  H        17.8674139122       27.0155096853       18.2261394244
  C        16.4753376024       25.6715015297       17.2290571055
  H        17.1205372209       25.5449597684       16.3464294510
  C        16.7316521649       24.5027512058       18.2071739979
  H        17.7864472737       24.4838805193       18.5211633968
  H        16.5199935685       23.5361325169       17.7243033546
  C        14.3524390095       24.6661675140       19.0141059453
  H        13.7091720635       24.7555696873       19.9016447341
  H        14.1083048551       23.7055448764       18.5340325595
  C        14.4297975109       27.1710665327       18.7420025157
  H        14.2350611664       28.0143443686       18.0621564909
  H        13.7801688940       27.3080693936       19.6197236948
  C        14.0984421989       25.8387290743       18.0401852646
  H        13.0397561098       25.8291643671       17.7402690744
  C        14.9954380832       25.6745610434       16.7975005254
  H        14.8104685142       26.4945520567       16.0871472656
  H        14.7503505052       24.7361054538       16.2758846455
  C        14.6181610501       19.7737433643       16.6905684678
  C        15.7368253281       20.5401868272       15.9699686027
  H        15.9858821690       21.4462175329       16.5439453435
  H        16.6437691058       19.9173316198       15.9381567620
  C        15.2770151287       20.9062470000       14.5407171207
  H        16.0855463934       21.4574006113       14.0368728206
  C        14.9633755210       19.6143430227       13.7605046771
  H        15.8673864304       18.9900265284       13.6937880343
  H        14.6561581384       19.8574130042       12.7321397537
  C        13.8403699502       18.8409786464       14.4795381152
  H        13.6212747495       17.9103912546       13.9341373142
  C        14.2975824967       18.4826656211       15.9114283466
  H        13.5105305820       17.9198721674       16.4342742327
  H        15.1930071987       17.8415333441       15.8816391478
  C        13.3484536892       20.6495410339       16.7582678006
  H        12.5540146819       20.1104690332       17.2946901056
  H        13.5656267344       21.5620863618       17.3353120282
  C        14.0112481454       21.7834568187       14.6091513132
  H        14.2275212733       22.7205648641       15.1457213205
  H        13.6887379491       22.0615603893       13.5943511120
  C        12.8884319411       21.0096774954       15.3277026195
  H        11.9854720020       21.6353757483       15.3911903771
  C        12.5736852594       19.7170945856       14.5482942547
  H        12.2279456834       19.9633868987       13.5328856221
  H        11.7583280569       19.1667940528       15.0417760439
  C        18.0947858107       26.9100454037       24.6962311397
  C        18.9577129362       28.1860230204       24.6158991790
  H        19.3718223253       28.2814000694       23.5998281522
  H        19.8086945308       28.1066149660       25.3083836024
  C        18.0903810568       29.4165429926       24.9669254320
  H        18.7140649098       30.3209413870       24.9042296688
  C        16.9181247180       29.5203841125       23.9708446694
  H        16.3059527380       30.4055153470       24.2007824566
  H        17.3013721486       29.6504674450       22.9473147245
  C        16.0583032606       28.2429979943       24.0556712878
  H        15.2257453657       28.3063817216       23.3388783977
  C        16.9278024448       27.0156323361       23.7050383331
  H        16.3340218690       26.0888362209       23.7391275782
  H        17.3289450674       27.1020052978       22.6840424141
  C        17.5448410162       26.7563434672       26.1294360474
  H        16.9501577554       25.8316331065       26.1922599178
  H        18.3777489552       26.6582862731       26.8415428876
  C        17.5377713139       29.2627227300       26.3981600525
  H        18.3663295680       29.2092286249       27.1204433534
  H        16.9338159113       30.1429352131       26.6656579598
  C        16.6772009427       27.9861316005       26.4816820081
  H        16.2886796595       27.8657592845       27.5040436099
  C        15.5042418123       28.0885003745       25.4863827885
  H        14.8728682365       27.1896865887       25.5518779324
  H        14.8680784183       28.9495219610       25.7411974997
  C        16.0077254397       21.2641688838       26.0032837725
  C        15.0447579289       22.3473574660       26.5357654796
  H        15.5481125018       23.3262336824       26.5055112574
  H        14.1618237416       22.4150332233       25.8835075124
  C        14.6232759590       21.9973632052       27.9812525020
  H        13.9392747735       22.7761148873       28.3510396387
  C        15.8745476045       21.9317080683       28.8796855245
  H        16.3801614100       22.9091836695       28.8960832809
  H        15.5831669600       21.7017081190       29.9157396084
  C        16.8333866610       20.8488508938       28.3441552789
  H        17.7349351288       20.8050401109       28.9739513524
  C        17.2501663203       21.2018317121       26.8991310927
  H        17.7634211431       22.1748354559       26.8723081788
  H        17.9543020388       20.4539869321       26.5005714913
  C        15.2965436178       19.8973649221       26.0140357893
  H        15.9808957923       19.1318203702       25.6192984628
  H        14.4198258480       19.9252835470       25.3504190543
  C        13.9101137942       20.6303172722       27.9898326402
  H        13.5868327881       20.3797526135       29.0115477899
  H        13.0042721011       20.6722497498       27.3663065286
  C        14.8707913711       19.5483781757       27.4580229306
  H        14.3640562876       18.5708189247       27.4517540373
  C        16.1216776804       19.4810433356       28.3560647119
  H        15.8355798604       19.2118885905       29.3840430683
  H        16.8040799488       18.6978968532       27.9912189548
  C        14.6488528439       15.8837290478       22.9355915087
  C        15.6248160550       14.7423405241       23.2430443807
  H        15.7621200733       14.1320784869       22.3378379460
  H        16.6104262037       15.1603126963       23.5032983432
  C        15.0708822049       13.8801025875       24.3988072548
  H        15.7831551925       13.0680903600       24.6101323720
  C        13.7087391917       13.2857910658       23.9864595078
  H        13.3098378924       12.6544241770       24.7948671362
  H        13.8300738081       12.6406483448       23.1030877188
  C        12.7237591914       14.4305616559       23.6757861300
  H        11.7523029374       14.0139640145       23.3697746780
  C        13.2833619704       15.2939246909       22.5218793432
  H        13.4111100217       14.6879866404       21.6114261080
  H        12.5845306861       16.1069340812       22.2763837469
  C        14.4682583931       16.7594897297       24.1903947324
  H        13.7908122809       17.5971441333       23.9687518059
  H        15.4401224880       17.1910796109       24.4714997907
  C        14.8908288831       14.7558231994       25.6550449195
  H        14.5126716491       14.1470081066       26.4901072724
  H        15.8614178881       15.1714625360       25.9670262495
  C        13.9049480078       15.8989529569       25.3436593387
  H        13.7802687513       16.5358383036       26.2331978104
  C        12.5423508823       15.3082784024       24.9304011337
  H        11.8251647599       16.1174381233       24.7255305243
  H        12.1250485172       14.7084324760       25.7533701831
  C        14.8350513840       13.6313338934       17.1967382822
  C        14.1099569337       12.7165030266       18.2055862974
  H        14.7705246468       11.8878324796       18.5013911723
  H        13.8794470926       13.2918127321       19.1158612065
  C        12.8140944588       12.1697174223       17.5647980648
  H        12.3041321882       11.5208451851       18.2925229811
  C        11.8953007593       13.3469559645       17.1816031688
  H        11.6212882093       13.9208818800       18.0795566338
  H        10.9601699006       12.9674969572       16.7428073905
  C        12.6233293293       14.2580150025       16.1727700283
  H        11.9761106430       15.1060491956       15.9028026588
  C        13.9197853873       14.8019588616       16.8123203714
  H        13.6959405672       15.4007292728       17.7090020741
  H        14.4528645955       15.4615607738       16.1110576038
  C        15.1906136620       12.8176146683       15.9354418426
  H        15.7313609615       13.4640529137       15.2264145326
  H        15.8650875924       11.9904245570       16.2015885272
  C        13.1682516801       11.3589989909       16.3020339639
  H        12.2534301598       10.9488459395       15.8482441259
  H        13.8073307624       10.5034098036       16.5677640910
  C        13.8949478435       12.2712055872       15.2934636505
  H        14.1591452388       11.6949510707       14.3940374280
  C        12.9762718181       13.4481139532       14.9087186327
  H        13.4780075138       14.0951272674       14.1731857106
  H        12.0590789948       13.0697514001       14.4326303912
  C        22.0097234848       22.0416420198       26.0459769000
  C        22.6786065379       23.3547617153       25.5905985458
  H        23.6051244546       23.1332951260       25.0404608686
  H        22.0090497632       23.8876974789       24.8982827885
  C        21.6630007444       24.5468511295       27.5650648569
  H        21.8639509512       25.1871161449       28.4372894137
  H        20.9854876316       25.1008183924       26.8979521538
  C        20.9988487334       23.2307591593       28.0177608413
  H        20.0512539005       23.4503075291       28.5328129151
  C        21.9484389893       22.4750316860       28.9690289481
  H        22.1540623419       23.0836692368       29.8626534719
  H        21.4756441277       21.5433695844       29.3152978405
  C        22.9646318710       21.2830367407       26.9936571227
  H        23.8960985785       21.0356766291       26.4635594146
  H        22.4983739401       20.3326960488       27.2964786457
  C        20.7024880616       22.3508136307       26.7826041237
  H        20.0036630562       22.8594919865       26.1002684590
  H        20.2273519659       21.4057306169       27.0862643757
  C        22.9802832897       24.2293111830       26.8295142831
  H        23.4535802472       25.1642087556       26.4940568914
  C        23.9316841343       23.4726768302       27.7775997211
  H        24.8832778964       23.2577007451       27.2682421333
  H        24.1683600002       24.0969283499       28.6525884655
  C        23.2651172564       22.1585624931       28.2318255255
  H        23.9441390374       21.6082953343       28.9006359528
  C        19.9302143785       16.1699020986       26.6823977700
  C        19.7572868721       16.9360890820       28.0097585637
  H        18.6885266622       17.1117124682       28.2039887635
  H        20.2400437605       17.9225113634       27.9258548431
  C        20.3847807098       16.1191086429       29.1622281591
  H        20.2561646691       16.6749488241       30.1030479097
  C        19.6800344674       14.7514673941       29.2643295699
  H        18.6110614862       14.8916271311       29.4850055509
  H        20.1064453824       14.1687505501       30.0947772810
  C        19.8520401799       13.9843642346       27.9378813857
  H        19.3419277149       13.0115529991       28.0018544023
  C        19.2248623792       14.8021420310       26.7860603892
  H        19.3280770245       14.2667624344       25.8289831327
  H        18.1486905087       14.9485723249       26.9629969361
  C        21.4253810993       15.9551739746       26.4067130132
  H        21.5433940609       15.4328929441       25.4439357938
  H        21.9181617736       16.9352896237       26.3057473594
  C        21.8856970891       15.9057661885       28.8826777172
  H        22.3463144040       15.3417828688       29.7077480539
  H        22.4020920652       16.8760118007       28.8273026511
  C        22.0557590348       15.1385216711       27.5559744631
  H        23.1261258401       14.9921584591       27.3455080907
  C        21.3526447017       13.7698352912       27.6573071215
  H        21.8047414106       13.1708049300       28.4621255404
  H        21.4859149277       13.2060858093       26.7216032122
  C        19.8216280944       13.3142439279       21.1389907556
  C        20.7640191812       12.5390724605       22.0859450373
  H        21.8110771044       12.7395824642       21.8152723150
  H        20.6186783909       12.8965050141       23.1172233277
  C        20.4622875070       11.0259616240       21.9885619102
  H        21.1373170084       10.4838840629       22.6679858375
  C        18.9967814165       10.7672063982       22.3918711770
  H        18.8297484404       11.0828661955       23.4329874429
  H        18.7772430184        9.6898574276       22.3425039235
  C        18.0610232605       11.5446553056       21.4444328072
  H        17.0124963368       11.3749110067       21.7329620280
  C        18.3676353157       13.0557025122       21.5464087668
  H        18.2127272635       13.4130853624       22.5757011015
  H        17.6920460526       13.6351069529       20.8978334043
  C        20.0522787577       12.8417535676       19.6890899840
  H        21.0896067914       13.0487144519       19.3871975838
  H        19.3966266011       13.4070042034       19.0093024475
  C        20.6906610265       10.5529687812       20.5389029470
  H        20.4977278020        9.4722523207       20.4603623843
  H        21.7399464716       10.7148642034       20.2491861657
  C        19.7521263004       11.3279974956       19.5927111284
  H        19.9161761117       11.0015643472       18.5548922397
  C        18.2860254333       11.0701637686       19.9944541162
  H        18.0555030298        9.9975213492       19.9088156346
  H        17.6106451082       11.6085546998       19.3125889957
