 438
 i =      347, E =     -1948.0755311488
 Au        17.8090222153       18.7703493781       15.9701108107
 Au        15.3970510026       15.8081690031       18.2660758408
 Au        18.3873485754       19.4714275711       21.5281007659
 Au        16.1724453808       18.6253415345       18.3839164861
 Au        18.4174868004       20.3481507071       18.8840867304
 Au        20.4515593887       16.9756704200       15.9979467942
 Au        15.1070845092       18.0337342573       15.7365504135
 Au        16.1321689939       20.5757988879       20.5080576695
 Au        17.0439342789       16.1399161906       15.6187235713
 Au        16.1880965567       17.0002405537       20.7416895059
 Au        13.8110478340       15.2640721327       15.1958428890
 Au        17.3825292405       22.4651295624       22.5573565436
 Au        13.5389188253       20.0669312630       18.1880410935
 Au        17.4329648372       13.4904549905       17.9429588486
 Au        16.0494603095       19.2567059260       23.5727952424
 Au        21.1177159125       18.9167946338       19.3487149314
 Au        17.2727268389       13.4865684212       21.8523032342
 Au        20.1526001921       22.1463028029       20.5625514192
 Au        18.5912382972       18.0187276631       13.1447195007
 Au        18.8999236190       16.3234256008       23.3222054547
 Au        15.4316339618       17.1497216308       12.7279682469
 Au        18.0208304940       16.4388843129       18.7259927763
  S        13.1679515001       15.3084833098       17.4625848681
  S        18.4030935668       23.7326486305       20.8255530607
  S        13.7994770758       21.2210279523       20.2390226231
  S        18.3640546794       14.1205730727       15.8582958834
  S        16.5342976091       12.4440474518       19.8766987789
  S        20.5540393175       16.8020701545       13.6547469069
  S        20.4141739641       16.8809522925       18.3592918949
  S        22.0561459354       20.7360128533       20.5131450639
  S        19.3011066116       20.5529600358       16.6269883924
  S        15.4054277085       17.0618507733       23.0065176449
  S        16.6605004363       19.1352600916       12.3231387706
  S        16.7145689383       21.3289987145       24.5097975149
  S        20.0888471070       18.2679071530       22.7798440440
  S        12.9084353870       18.9523643445       16.2042081717
  S        17.7395214544       14.3835532607       23.9762864538
  S        14.3744516896       15.0516663324       12.9133299834
  C        17.2949233932       10.7347556280       19.8964724600
  C        19.1945508840       25.2036460115       21.6698928415
  C        10.4128284481       11.9677394674       19.0922211975
  H         9.7580882406       12.7542083474       19.4973848276
  H         9.9541246462       11.0014173586       19.3513158853
  C        13.5389760917       17.0478847468       22.9725432276
  C        20.0623295884       24.8135426134       22.8769765625
  H        20.8481633577       24.1145465874       22.5484462229
  H        19.4425507604       24.2761041072       23.6121724803
  C        18.0684899076       26.1499051088       22.1331081659
  H        17.4322152503       25.6269572961       22.8640726737
  H        17.4306321740       26.4203626774       21.2784614900
  C        12.1511736201       23.2365822429       19.3097393210
  H        11.9877037500       22.6362442433       18.4010147346
  H        11.4442691661       22.8706115862       20.0686630085
  C        13.5994429848       23.0300320901       19.8029773120
  C        13.8042104379       23.8492604758       21.0923990659
  H        13.0991848295       23.5029684339       21.8620340338
  H        14.8244919265       23.6859889148       21.4765979760
  C        15.2040510554       22.1002034953       25.2872727920
  C        20.2502022341       13.0348182910       23.8945310415
  H        20.7125527257       14.0046857988       23.6528637579
  H        19.9387566466       12.5813661501       22.9405005339
  C        21.6591510769       15.5784880048       18.9085202857
  C        17.1830237463       22.3677014268       16.0768979143
  H        16.6165011026       21.5204473699       15.6612708086
  H        16.9735035829       22.3914399011       17.1568616430
  C        20.0658452713       25.9238019569       20.6198971473
  H        20.8561321018       25.2395123135       20.2733260445
  H        19.4550458943       26.1864744313       19.7432593620
  C        11.8176702107       12.0712077341       19.7176352888
  H        11.7468291344       11.9824519990       20.8123286093
  C        14.3009112720       24.2288622420       26.2877712158
  H        14.5231875008       25.2900459439       26.4753981049
  C        18.9719942828       11.6289339341       14.8836762309
  H        19.9990970720       12.0179758688       14.8260256049
  H        18.8287379041       11.2376024059       15.9028583016
  C        20.8738434042       20.5321468653       24.1977604191
  H        19.9552176992       21.0409531519       23.8662718910
  H        21.6163430414       20.6557709948       23.3963665864
  C        23.9339144521       22.6208539770       17.2413785755
  H        23.5352557130       22.9139567024       16.2581483606
  C        13.9494483726       21.9720802650       24.4149615156
  H        14.1293407156       22.4501964860       23.4437507872
  H        13.7546758070       20.9070257687       24.2128695992
  C        14.3395777545       25.0096477854       18.4349155028
  H        15.0485938917       25.3404391250       17.6612757426
  C        18.6833771911       22.1356115792       15.8547623498
  C        23.8620957211       22.7831235027       20.1882368815
  H        23.0289018838       23.4870386192       20.3412645904
  H        24.2300869774       22.4916278853       21.1830447697
  C        19.0111771666       13.2718720034       24.7707271972
  C        22.6565449712       14.4302213800       20.9008814807
  H        22.6284021124       14.3718135104       21.9993853057
  C        18.6857254216       27.4208823701       22.7601972264
  H        17.8726597082       28.0864943738       23.0867215824
  C        12.7147746580       10.9484551665       19.1608514863
  H        13.7138034199       11.0102340359       19.6186975462
  H        12.2930915310        9.9650806520       19.4182209159
  C        21.6272482179       15.4891589660       20.4420403509
  H        20.6170505456       15.2163272137       20.7848234607
  H        21.8616775178       16.4704372731       20.8825405568
  C        20.5852871966       19.0362924491       24.4189283418
  C        12.4421712880       13.4419357241       19.3703191279
  H        11.8230428957       14.2551343362       19.7763832944
  H        13.4426547141       13.5306863372       19.8193691488
  C        22.8052122481       21.9575209778       18.0607488983
  H        22.4020938071       21.0774497741       17.5364664256
  H        21.9641167348       22.6533858583       18.2019826680
  C        10.5232072894       12.1073645197       17.5608054735
  H         9.5221214465       12.0449497424       17.1080846587
  C        21.5553358292       26.7993309193       22.4547956099
  H        22.0171754818       27.6957051373       22.8956170716
  H        22.3750651984       26.1401276492       22.1310039428
  C        18.8297073089       10.7683446145       19.9682885092
  H        19.1364956959       11.3103811418       20.8764088541
  H        19.2211687366       11.3320814916       19.1069725965
  C        17.0474597145       23.6176239312       13.8923784493
  H        16.4718782249       22.7956290691       13.4396716444
  H        16.7295483485       24.5489283643       13.3994041211
  C        17.9668068237       12.7731024490       14.6262686980
  C        18.3341428815       11.9217331189       25.0841683764
  H        17.4346983980       12.0886160359       25.6948044198
  H        18.0051435448       11.4523467098       24.1439931819
  C        19.4394277088       13.9421048831       26.0940748199
  H        19.9015431226       14.9171450795       25.8733177470
  H        18.5538628395       14.1359935828       26.7169290443
  C        23.3456796973       21.5394270175       19.4341310005
  C        19.0630070988       24.6295622713       15.7967370341
  H        19.6376660331       25.4531953148       16.2470688819
  C        19.3518167804       24.5566590532       14.2841203097
  H        19.0709411454       25.5041316717       13.7995343475
  H        20.4292342577       24.4132887203       14.1106598006
  C        12.5516101124       13.5849298560       17.8407494177
  C        24.0661128753       14.8431602747       20.4334575361
  H        24.8085030589       14.1060175860       20.7746818811
  H        24.3435261065       15.8110409469       20.8772722352
  C        16.8571273012       10.0039546005       18.6106382579
  H        15.7591477159        9.9928537256       18.5416380515
  H        17.2325115758       10.5556792967       17.7342017756
  C        19.5569936494       28.1389284949       21.7101054744
  H        18.9406652222       28.4444867280       20.8511107247
  H        19.9868240463       29.0560977379       22.1403140980
  C        22.3109613328       13.1632105962       18.7558274123
  H        22.0339862486       12.1944847939       18.3133062109
  C        13.0455208714       17.2717628217       24.4174514257
  H        13.4861314099       16.5154950454       25.0835022256
  H        13.3890376821       18.2567705387       24.7714365168
  C        11.5023608400       17.1905902681       24.4522245540
  H        11.1610645640       17.3544392756       25.4855698885
  C        19.5316592344       18.8656548998       25.5231465395
  H        19.3234985565       17.7935116677       25.6661796234
  H        18.5869518266       19.3357280572       25.2161077325
  C        23.0606285096       15.9988263414       18.4331427707
  H        23.0636917246       16.0917304106       17.3357517105
  H        23.3095894808       16.9876110119       18.8501339359
  C        16.5530331789       11.6852041437       12.2748452913
  H        16.3887748078       10.8999611443       11.5214846141
  H        15.8328530284       12.4923610870       12.0740463074
  C        20.5716001549       10.7675722818       24.9468779910
  H        21.2785316663       10.0999183745       25.4621087354
  H        20.2806801503       10.2667645839       24.0101842000
  C        18.9784743286       22.0637591601       14.3420011155
  H        20.0517486535       21.8819181314       14.1822684489
  H        18.4340498321       21.2155010482       13.9001510424
  C        18.8293752549        8.5730954324       21.2042269311
  H        19.1520392469        9.0707231151       22.1321293703
  H        19.2306756643        7.5488035951       21.2324166125
  C        20.6819243851       26.0819326574       23.5038937634
  H        21.3007219341       25.7873534083       24.3646931250
  C        18.2011436907       13.3455593146       13.2136325522
  H        19.2182397465       13.7579963347       13.1393324046
  H        17.5014609557       14.1757629938       13.0323942759
  C        16.8553685336        7.8069554036       19.8430210942
  H        15.7574924556        7.7535759587       19.7900346079
  H        17.2284963431        6.7716883189       19.8502518406
  C        19.4844827604       23.3027041668       16.4683640338
  H        20.5606516626       23.1298409777       16.3208456562
  H        19.3047375667       23.3443760234       17.5538156769
  C        14.0641496694       23.5013275154       27.6265562079
  H        13.2210032767       23.9629044274       28.1624162175
  H        14.9492363452       23.6001452945       28.2730087036
  C        15.5037055457       23.5876791206       25.5591199065
  H        15.6972391070       24.0999055546       24.6036552292
  H        16.4150948225       23.6800281843       26.1682416951
  C        11.4045532885       18.0416378784       22.0848771084
  H        10.9987257198       18.8175008337       21.4187497159
  C        12.7464795157       22.6173655247       25.1371167281
  H        11.8556777207       22.5232580857       24.4977642967
  C        24.4478313989       23.8675566235       17.9895623078
  H        23.6338629919       24.5984910695       18.1095309363
  H        25.2405563253       24.3601949933       17.4064505918
  C        10.9099018016       18.2724090705       23.5270260231
  H        11.2104246557       19.2733747667       23.8739685610
  H         9.8104708673       18.2362193668       23.5614661657
  C        21.2472734349       12.1187947387       24.6376716133
  H        22.1281457895       11.9569960049       23.9980867474
  C        11.1428060405       13.4805056301       17.2156753413
  H        11.2203299349       13.6064413881       16.1244810660
  H        10.5067054141       14.2947015149       17.5926274675
  C        16.7604775876       23.6929716983       15.4056423945
  H        15.6831986420       23.8481781301       15.5717931510
  C        13.4412865905       12.4671352484       17.2804305924
  H        14.4546502452       12.5570972618       17.6990219769
  H        13.5289458499       12.5858883165       16.1888023822
  C        22.0063839053       17.8152439329       13.0727961855
  C        17.4099442487        8.5611706035       18.6181614221
  H        17.0928940441        8.0554134210       17.6934821012
  C        24.0872319986       14.9390405628       18.8948057211
  H        25.0872839229       15.2451126041       18.5528073746
  C        12.8246738038       11.0930569808       17.6294130988
  H        13.4739628241       10.3005214161       17.2263462621
  C        14.5584993442       25.8259323545       19.7236248140
  H        15.5930711393       25.6967105431       20.0762340531
  H        14.4117449522       26.8980100516       19.5235451400
  C        21.8896167467       18.3264486741       24.8469362592
  H        21.6937686250       17.2516797469       24.9828242944
  H        22.6425742360       18.4236770326       24.0513642787
  C        16.5354134286       12.2327064964       14.7372201646
  H        16.3684581597       11.8451145182       15.7543007917
  H        15.8155959969       13.0503922400       14.5840366979
  C        20.6840783190       27.1947466811       21.2460353655
  H        21.3034712251       27.6989218986       20.4891268151
  C        16.7364078076        9.9783275813       21.1191823413
  H        15.6370535538        9.9665813466       21.0802469179
  H        17.0217343740       10.5107271640       22.0401283966
  C        17.3209785572        9.9692101942       13.9500232348
  H        17.1539627254        9.5398755992       14.9502026842
  H        17.1656629543        9.1587545894       13.2217671429
  C        12.1234615077       25.5524124531       20.3088480379
  H        11.9358669080       26.6193985076       20.1151120371
  H        11.4091429187       25.2352466010       21.0837439921
  C        13.5689886654       25.3488955156       20.8039908299
  H        13.7286787889       25.9168414915       21.7333417174
  C        11.9072301615       24.7349176116       19.0198400710
  H        10.8734828189       24.8644613095       18.6655099918
  C        11.9078457189       14.9735246757        9.5601269577
  H        12.1952285442       14.9940517342        8.4981412613
  C        14.5850850504       23.5122615915       18.7294837814
  H        14.4544964407       22.9089756382       17.8180921418
  H        15.6159388344       23.3503496250       19.0794889670
  C        20.4350588251       13.0264777267       26.8405315938
  H        20.7334719093       13.5163379443       27.7795389325
  C        22.2911587621       13.0618601717       20.2936546141
  H        21.2935585602       12.7510181090       20.6389118051
  H        23.0060339835       12.2957926967       20.6304248647
  C        23.7205645582       13.5717233800       18.2840044600
  H        24.4564185924       12.8129318514       18.5902774012
  H        23.7513147995       13.6271208047       17.1854369554
  C        18.9928416536       11.0816203073       12.4267666615
  H        18.8644373330       10.2897571162       11.6732591601
  H        20.0253367678       11.4510225066       12.3337372840
  C        26.1490955802       22.4465084350       19.1865521208
  H        26.9681352981       22.9156298762       18.6207341022
  H        26.5589635232       22.1573861293       20.1660554012
  C        23.1891692865       18.6162627996       10.9947014461
  H        23.1417278524       18.6405066538        9.8955916748
  C        21.2840649178       14.2234015599       18.2938218166
  H        21.2707267805       14.2986145682       17.1958828116
  H        20.2675936658       13.9363692565       18.6070025471
  C        16.3232279493       11.1157480422       13.6896171764
  H        15.2923398779       10.7404962815       13.7762440921
  C        25.0916488198       21.6194757414       17.0563471703
  H        25.8948565889       22.0747068452       16.4575212923
  H        24.7399857691       20.7344845241       16.5041163310
  C        18.5554643993       23.3890271835       13.6685587838
  H        18.7654228243       23.3210667492       12.5900112977
  C        24.9918707290       23.4485690903       19.3700220903
  H        25.3502525332       24.3352116676       19.9143152558
  C        11.4202471492       10.9848728569       17.0019587193
  H        11.4877304317       11.0655212689       15.9064022902
  H        10.9787663323       10.0021166148       17.2268960930
  C        19.7581776078       11.6761494763       27.1493213427
  H        18.8821687561       11.8310809545       27.7970570936
  H        20.4527188779       11.0220723269       27.6978309285
  C        14.9726563180       21.3726373832       26.6291522388
  H        15.8760446205       21.4410124169       27.2527933444
  H        14.7872840539       20.3043667116       26.4388563559
  C        21.6766884631       12.7916671207       25.9572628338
  H        22.1781520713       13.7487410735       25.7480027176
  H        22.4022470498       12.1562992706       26.4873007491
  C        19.3839003234        9.3265980219       19.9784202610
  H        20.4822950672        9.3667625893       20.0313317961
  C        12.4472138241       20.2855485352       14.9827033815
  C        15.5392526811       19.6712934410        9.8530283863
  H        15.1851418941       20.6023040272       10.3204027306
  H        14.7881430615       18.8941519296       10.0634165626
  C        19.3297906009       11.0040476502       25.8294957387
  H        18.8370639242       10.0438577574       26.0438448166
  C        11.8780856488       16.2316815242       12.2286805311
  H        12.4176360012       17.1675241016       12.0214987727
  H        11.6320571103       16.2325317710       13.3018937925
  C        23.2340736205       20.0106299274       13.0902442211
  H        23.2219088732       21.0345749454       13.4935979786
  C        16.8896485472       19.2540015958       10.4698683280
  C        13.0431738173       24.1069428113       25.4043397094
  H        12.1844086943       24.5801478142       25.9039161630
  H        13.1963632770       24.6391484845       24.4527852224
  C        11.0536665823       15.7963173436       23.9700503301
  H         9.9564986725       15.7191886068       24.0083370707
  H        11.4551999069       15.0183315573       24.6368102925
  C        12.8950684411       25.2136566005       17.9382373397
  H        12.7337220274       24.6539139034       17.0038854248
  H        12.7197792825       26.2759785538       17.7103890525
  C        21.3933980127       21.1579755341       25.5116490537
  H        21.5903477273       22.2268839845       25.3378585956
  C        19.5557887156       27.0265697934       23.9699054863
  H        18.9387446595       26.5306852944       24.7342775669
  H        19.9845786519       27.9269337051       24.4351959754
  C        25.6349718494       21.2011406235       18.4369028530
  H        26.4545259645       20.4778457505       18.3112545785
  C        24.4744698129       17.8938895486       11.4453219496
  H        25.3592093047       18.4177938407       11.0531939858
  H        24.4978781315       16.8723182666       11.0368594655
  C        17.5564003703       24.8602740249       16.0236792441
  H        17.3476000116       24.9308086341       17.1021275764
  H        17.2470540017       25.8134760843       15.5685617508
  C        13.0936970470       15.6517564468       22.4939074207
  H        13.5353173162       14.8756456778       23.1363155512
  H        13.4670199613       15.4821957286       21.4726632455
  C        18.9494008556        8.6009154454       18.6891371170
  H        19.3540617423        7.5776938442       18.6758325882
  H        19.3554239170        9.1199030081       17.8072891755
  C        13.1853442187       15.0675129062       10.4254628390
  H        13.8622261443       14.2297582634       10.2015419062
  H        13.7337290103       15.9972367532       10.2074333014
  C        17.2899690435        8.5348870127       21.1307883379
  H        16.8880992898        8.0086174449       22.0095339583
  C        17.9928092398       12.2258402364       12.1676211825
  H        18.1587171396       12.6458592043       11.1642385008
  C        12.1858553768       19.5911930730       13.6322384138
  H        13.1098386842       19.0974023913       13.2911148688
  H        11.4260377226       18.8069419149       13.7610314177
  C        23.2918485526       17.0902103996       13.5220015719
  H        23.2871498467       16.0555887962       13.1487843487
  H        23.3156422781       17.0411544240       14.6218686026
  C        18.7609334255       10.5091798088       13.8394328789
  H        19.4793276356        9.6989737006       14.0360768992
  C        12.5074550113       21.8910290347       26.4760803488
  H        12.2729452256       20.8310307602       26.2938419399
  H        11.6415902782       22.3279775962       26.9960209077
  C        22.6945061630       20.4496886125       25.9390687894
  H        23.0855416036       20.9008096203       26.8636907788
  H        23.4667476540       20.5774585027       25.1654414411
  C        10.7838379204       13.6286139077       11.3672774365
  H        10.2665474108       12.6858223686       11.6000663923
  C        24.5039547128       20.5368691982       19.2549753348
  H        24.1300705214       19.6386951247       18.7391472674
  H        24.8785754874       20.2171380844       20.2384468956
  C        12.0613757540       13.7236602456       12.2320721468
  H        11.8072312742       13.6958986583       13.3031836274
  H        12.7247028115       12.8692064092       12.0315399129
  C        12.7994976009       21.7097041970       12.4170431495
  H        12.4821407034       22.4474188019       11.6646621385
  H        13.7300731753       21.2490675796       12.0519246481
  C        11.7124329612       20.6312236901       12.5932583976
  H        11.5363520860       20.1197730029       11.6345261964
  C        10.5990616367       16.1385259543       11.3676344231
  H         9.9491128301       16.9953647907       11.6010079909
  C         9.8608015515       14.8222515960       11.6836055571
  H         9.5637899528       14.8003702719       12.7429191098
  H         8.9380118659       14.7531916136       11.0879787766
  C        21.9571802044       17.8529411929       11.5309455494
  H        21.0257921377       18.3457825063       11.2101860990
  H        21.9376956366       16.8280466729       11.1318959788
  C        17.9343302509       20.3582849547       10.2060035831
  H        18.8920203261       20.0686830153       10.6659384939
  H        17.6154770454       21.2975578070       10.6826656950
  C        16.7502221343       20.9732893460        8.0677031661
  H        16.4123632616       21.9254206368        8.5040743993
  H        16.8627197495       21.1372270727        6.9853617573
  C        17.5289179275       18.1355472829        8.3053488824
  H        17.8666953594       17.1880791542        7.8596371432
  C        12.9459772113       18.1209360922       22.0498783291
  H        13.3175998500       17.9708506657       21.0240568491
  H        13.2891788859       19.1161718708       22.3701296292
  C        18.1017041839       20.5575386111        8.6824828226
  H        18.8485679850       21.3462211037        8.5064112684
  C        10.9845753165       16.1676051333        9.8747085466
  H        10.0807073928       16.1197752811        9.2488038902
  H        11.4934895840       17.1134032338        9.6343147119
  C        20.3293538199       20.9955029201       26.6146765343
  H        19.4015423263       21.5098619757       26.3224424942
  H        20.6809667968       21.4565444668       27.5500879429
  C        18.5750778985       19.2375610783        8.0421330903
  H        18.7173134992       19.3735837934        6.9593872867
  H        19.5491430307       18.9417628640        8.4607680292
  C        11.5502088882       15.5688134363       22.5282385214
  H        11.2426796618       14.5695436856       22.1833107468
  C        13.5297311924       21.3594184159       14.8020435772
  H        14.4645357727       20.8828718537       14.4694077499
  H        13.7368020270       21.8361908637       15.7726855924
  C        17.3594518744       17.9393017777        9.8281429802
  H        18.3086659280       17.6269971610       10.2920072309
  H        16.6247077589       17.1470696386       10.0425622727
  C        16.1782769358       18.5502322645        7.6876474062
  H        15.4299745326       17.7597696307        7.8504362712
  C        12.7963996292       15.0434303286       11.9180309871
  C        10.4065758673       21.2877084792       13.0830875986
  H         9.6179646589       20.5277835487       13.1919140809
  H        10.0490677344       22.0195358333       12.3429181541
  C        20.0498767888       19.4953936915       26.8364448298
  H        19.2812467045       19.3714877746       27.6139910766
  C        23.1837730088       20.0549040454       11.5494196040
  H        22.2791270142       20.5855546046       11.2158989298
  H        24.0478283697       20.6125490169       11.1575569215
  C        11.1383873563       20.9418732804       15.4712267091
  H        11.3109003870       21.4196174772       16.4481078689
  H        10.3700927362       20.1694987586       15.6215058026
  C        10.6621185073       21.9845909041       14.4344367508
  H         9.7317844366       22.4472981058       14.7966767680
  C        11.7480513392       23.0640263270       14.2577069437
  H        11.4127373544       23.8218381025       13.5335144707
  H        11.9197713824       23.5859129851       15.2118923623
  C        11.1710100995       13.6561552951        9.8750906411
  H        10.2696426839       13.5695740295        9.2496465291
  H        11.8136332441       12.7958405393        9.6343836370
  C        13.0536333877       22.4058440440       13.7688468647
  H        13.8359877009       23.1710669433       13.6512785500
  C        22.4112306487       18.9506391834       26.1621262031
  H        23.3386200152       18.4359713274       26.4559801380
  C        22.0009814609       19.2483922260       13.6236046684
  H        22.0004348934       19.2202741252       14.7244691028
  H        21.0686376363       19.7496124270       13.3203433365
  C        24.5204049654       19.2892117119       13.5407080341
  H        24.5770112507       19.2692917979       14.6398625029
  H        25.4061839584       19.8350692439       13.1824837878
  C        24.5253751868       17.8514942089       12.9856748530
  H        25.4363384388       17.3286084821       13.3133553566
  C        10.9542177238       16.6482407107       21.6025691435
  H         9.8556927427       16.5822554099       21.6063728159
  H        11.2859361997       16.4876517213       20.5652141632
  C        21.3491451895       18.7860419895       27.2672401244
  H        21.1546361627       17.7180159135       27.4492704756
  H        21.7195166183       19.2120205042       28.2121161788
  C        13.7673977855       22.0126430997       27.3564633418
  H        13.6083093740       21.4859948243       28.3093301414
  C        15.7056175854       19.8696718714        8.3291727491
  H        14.7363138946       20.1664622815        7.9012439336
  H        16.2819225765       18.6767893613        6.5994043001
