349
Energy =  -1930.3096569914
 Au        20.0000152283       20.0000053872       19.9999943025
 Au        20.9932835253       20.8405974225       22.5696065493
 Au        19.8590437344       22.8621371561       20.3002618995
 Au        17.8704186626       20.8560458479       21.7130901846
 Au        22.5374170563       21.3558415400       20.2578626795
 Au        22.0865927443       18.4194006046       21.2995150145
 Au        24.2779408239       20.6522412832       22.7695284126
 Au        18.4354844748       20.1705266383       24.8301083993
 Au        22.4364280284       23.6661436796       22.4294851533
 Au        15.9577592603       18.5735914517       22.7852939602
 Au        19.1764316817       18.3759123620       22.2389093053
 Au        19.0548451390       24.5087534842       17.7041590068
 Au        16.7847559094       23.9068288117       20.4371700514
  S        16.1656246711       19.5428882585       24.9323687747
  S        24.6239525388       22.9760719279       22.9863991041
  S        19.1143552722       16.2987521589       23.5502006030
  S        24.1266448530       18.2998997593       22.6649813139
  S        17.2850520253       25.5746592900       18.8457242397
  S        24.5511296142       22.4018201497       19.2958459180
  S        20.6860358346       20.8380410385       24.9708769083
  S        20.3362163905       24.6014453653       21.9229515463
  S        16.1554374077       22.4899356590       22.2139401030
  C        19.7957738122       16.6727347355       25.2292056752
  H        20.8444467832       16.9702852106       25.1342156486
  H        19.2342418499       17.5516362562       25.5817609398
  C        19.9745353369       25.0708112864       27.6058712932
  H        18.9717467588       24.9051109328       27.2127213746
  C        20.6963772968       22.5805674539       25.5798358631
  H        21.6685779754       22.9871365761       25.2694901690
  H        19.9239247242       23.1596536752       25.0632551588
  C        20.6880964341       26.1616618068       20.9954949453
  H        21.5553435875       26.0103950466       20.3444766964
  H        19.8087849783       26.3219009794       20.3569763039
  C        20.3299537111       26.3411917287       28.0703122637
  H        19.6007884702       27.1476294056       28.0312323320
  C        20.8931206715       24.0096532258       27.6494668650
  C        24.7484239938       23.2549612579       24.8091696176
  H        24.6202986008       24.3349587043       24.9585662184
  H        23.9228239009       22.7401872813       25.3107351745
  C        20.8868443980       27.3645089629       21.9368909434
  H        20.8729102926       28.2667752342       21.3034730719
  H        20.0226101467       27.4410607718       22.6114314173
  C        19.6309097401       15.4974770740       26.2108093795
  H        18.5765770155       15.1871409032       26.2359076974
  H        19.8676553385       15.8882918543       27.2140359597
  C        21.6092288264       26.5719483384       28.5874409925
  H        21.8816822677       27.5596195807       28.9538272290
  C        20.5344011784       22.6403859024       27.1097119075
  H        19.5003890287       22.3738048704       27.3719519701
  H        21.1849571162       21.8834784918       27.5699375961
  C        20.5157643802       14.3047972813       25.9239910661
  C        22.1875159877       12.1000489510       25.3731586469
  H        22.8311122304       11.2474648266       25.1662590121
  C        23.3348980794       27.0707966171       24.8657610977
  H        23.2933482870       26.8699411724       25.9351600419
  C        22.1496302645       27.0854532188       24.1216124685
  H        21.2001370742       26.8940355986       24.6198855639
  C        22.1666787844       27.3438296460       22.7428659659
  C        19.9997116713       13.1426948263       25.3311447442
  H        18.9394117795       13.0971926928       25.0860751940
  C        21.8831484788       14.3429103362       26.2431362547
  H        22.3001494039       15.2296310334       26.7208605013
  C        22.7133828916       13.2517980715       25.9694728192
  H        23.7692646369       13.2992641753       26.2298445727
  C        23.5386351697       17.8799758539       24.3622921383
  H        22.6420420019       18.4706140389       24.5806862994
  H        23.2509403986       16.8193104947       24.3327326750
  C        15.8995113820       25.5015133066       17.6285800957
  H        16.2161414031       26.1146893602       16.7748145387
  H        15.7860272984       24.4650136664       17.2932810833
  C        24.2077430372       17.6969284586       26.8001013154
  C        24.8481284164       16.6321019620       27.4536416006
  H        25.6698870716       16.1200199858       26.9540524401
  C        26.6292952873       24.1868491547       27.3966480363
  H        26.9733830396       24.9726443213       26.7254401416
  C        25.7423834281       21.9700811630       27.7376551558
  H        25.3940921653       21.0181844575       27.3371490106
  C        23.4031804858       27.5830513016       22.1203281206
  H        23.4383625705       27.7899133444       21.0504093279
  C        24.6354865568       18.1241741352       25.4119471339
  H        25.5485501926       17.5862208995       25.1214526740
  H        24.8845865183       19.1977479476       25.3984314860
  C        16.6707129722       23.4622555696       23.6968132630
  H        16.6741430093       22.7514876870       24.5351130012
  H        17.6912319669       23.8353227023       23.5541692501
  C        24.5589645188       27.3105946876       24.2346275512
  H        25.4823178064       27.3071347104       24.8109156375
  C        26.1014491867       22.7699309226       25.3575036318
  H        26.9155722311       23.3102825955       24.8547221134
  H        26.2243606129       21.7051050085       25.1101567710
  C        26.1756016042       22.9733480852       26.8556975910
  C        14.7224747042       16.2516321136       27.0463857942
  C        26.6490074762       24.3943462780       28.7796510771
  H        27.0116505848       25.3387509859       29.1803563134
  C        22.1751592209       24.2535203709       28.1683346151
  H        22.9020924018       23.4428730564       28.2120894111
  C        14.4360257323       16.3713428245       28.4152525173
  H        14.1735769715       17.3473427212       28.8209130284
  C        22.5320789039       25.5223083787       28.6365805276
  H        23.5297951455       25.6830557983       29.0404388016
  C        15.0941888674       13.8651464612       27.3790585851
  H        15.3442733856       12.8899560692       26.9663903559
  C        15.0517723186       14.9834521575       26.5407583521
  H        15.2685377725       14.8708727496       25.4786569688
  C        23.1476839175       18.3448286523       27.4583064426
  H        22.6334742167       19.1701279400       26.9649242020
  C        24.4451842331       16.2247612304       28.7303509824
  H        24.9555210385       15.3982415091       29.2206647343
  C        14.7278833007       17.4660364483       26.1427866722
  H        14.0107225369       18.2166808866       26.5024795733
  H        14.4159077390       17.1879279305       25.1249465530
  C        16.1332420164       18.0878798851       26.0726003077
  H        16.8644110632       17.3487791485       25.7286381995
  H        16.4514355655       18.4569303919       27.0559656044
  C        25.7591831420       22.1729164347       29.1214042395
  H        25.4246489411       21.3796871676       29.7869336120
  C        22.7405020055       17.9377121967       28.7326657188
  H        21.9183504744       18.4518801264       29.2266630618
  C        15.9883723122       25.3947925083       25.1985776806
  C        15.5930124180       24.9158153859       26.4586799502
  H        15.0541180808       23.9713985125       26.5235572744
  C        24.0327338896       24.1626661602       19.1120477600
  H        22.9680905175       24.1962978227       18.8543186408
  H        24.1528751293       24.6016575397       20.1133956368
  C        14.5789688567       26.0109573175       18.2281703304
  H        14.3324044281       25.3972328851       19.1078456189
  H        14.7006426513       27.0447339156       18.5790169516
  C        13.4705363227       25.9294627496       17.1996565436
  C        20.8267210457       12.0481845531       25.0570637220
  H        20.4075836449       11.1538897347       24.6000470825
  C        26.2108999416       23.3879982786       29.6469604826
  H        26.2284110306       23.5463536677       30.7231900038
  C        16.6794462805       26.6148307642       25.1362162995
  H        16.9922594693       26.9980132668       24.1658454335
  C        15.6769394004       24.6119422109       23.9412944113
  H        14.6609448248       24.1961276448       24.0020017543
  H        15.6929813842       25.2798798446       23.0677966980
  C        24.5897187681       27.5642137285       22.8583088403
  H        25.5374396311       27.7548192422       22.3587841347
  C        23.3880577000       16.8753691194       29.3735322948
  H        23.0718921341       16.5589935895       30.3652880554
  C        14.8090052033       13.9988123800       28.7418467797
  H        14.8393282655       13.1294875343       29.3951667408
  C        15.8691213909       25.6403282191       27.6219247542
  H        15.5481711793       25.2570752664       28.5882573277
  C        24.5209092363       26.3910939232       18.0388747206
  C        23.2819019680       26.8164771618       17.5287915687
  H        22.5850350481       26.0785794407       17.1293713397
  C        25.0576481632       28.7162589218       18.5454676019
  H        25.7560932279       29.4519912823       18.9390216665
  C        16.5465588582       26.8621384643       27.5438700321
  H        16.7507523708       27.4325297772       28.4477217449
  C        25.4007927780       27.3595924815       18.5469179174
  H        26.3649090500       27.0446777616       18.9437089386
  C        24.8763165050       24.9193995273       18.0731467074
  H        25.9437637142       24.7940251603       18.3004151889
  H        24.7039899301       24.4564785193       17.0886919684
  C        14.4775837311       15.2556164636       29.2576671333
  H        14.2481651301       15.3669095743       30.3152803607
  C        23.8202987298       29.1263152130       18.0394019406
  H        23.5511603111       30.1804482799       18.0382602919
  C        22.9334323927       28.1706341238       17.5308471539
  H        21.9674970637       28.4781117710       17.1337338578
  C        13.0699924344       27.0618978392       16.4741683337
  H        13.5380026288       28.0221465859       16.6859944975
  C        16.9535749063       27.3462498544       26.2968844869
  H        17.4781059477       28.2970299478       26.2253330913
  C        11.4714506345       25.7423162275       15.2178907644
  H        10.6967080768       25.6708245407       14.4574438409
  C        11.8621744981       24.6055048607       15.9344920524
  H        11.3896196464       23.6460153989       15.7339599678
  C        12.8537078804       24.6992897937       16.9158298906
  H        13.1569098142       23.8103990690       17.4687106728
  C        12.0776559729       26.9721426580       15.4917707935
  H        11.7761951882       27.8622718907       14.9436582550
 Au        19.0067558408       19.1594031895       17.4303907974
 Au        20.1409834481       17.1378757813       19.6997165522
 Au        22.1296186488       19.1439683076       18.2868941328
 Au        17.4626044344       18.6441625636       19.7421175387
 Au        17.9134293776       21.5805911469       18.7004575339
 Au        15.7220843022       19.3477433775       17.2304750622
 Au        21.5645351832       19.8294699844       15.1698787079
 Au        17.5635971692       16.3338484312       17.5705119758
 Au        24.0422507459       21.4264411757       17.2146759070
 Au        20.8235944929       21.6240998624       17.7610727742
 Au        20.9451712466       15.4912491845       22.2958127534
 Au        23.2152729978       16.0931791719       19.5628083580
  S        23.8343926014       20.4571434874       15.0675916257
  S        15.3760684963       17.0239222467       17.0135986355
  S        20.8856540557       23.7012389507       16.4497605890
  S        15.8733732611       21.7000828480       17.3349938551
  S        22.7149786174       14.4253538939       21.1542646673
  S        15.4488837403       17.5982109017       20.7041330816
  S        19.3139922291       19.1619123760       15.0291135842
  S        19.6638228944       15.3985674758       18.0770315741
  S        23.8445938175       17.5100781127       17.7860416390
  C        20.2042012640       23.3272190081       14.7707747425
  H        19.1555206116       23.0297029452       14.8657809553
  H        20.7657123466       22.4483023188       14.4182277189
  C        20.0254745093       14.9291456685       12.3941056271
  H        21.0282612248       15.0948481731       12.7872619788
  C        19.3036659289       17.4193915763       14.4201399220
  H        18.3314727236       17.0128479342       14.7305375382
  H        20.0761238811       16.8403316068       14.9367447262
  C        19.3119691732       13.8383528572       19.0045016989
  H        18.4447194343       13.9895939676       19.6555225386
  H        20.1912892407       13.6781233405       19.6430114528
  C        19.6700237928       13.6587684969       11.9296855302
  H        20.3991891507       12.8523316149       11.9687764344
  C        19.1068730746       15.9902938901       12.3506055519
  C        15.2515933390       16.7450120464       15.1908343285
  H        15.3797150042       15.6650166589       15.0414393457
  H        16.0771891484       17.2597958725       14.6892683382
  C        19.1132366625       12.6354913010       18.0631193123
  H        19.1272049976       11.7332192422       18.6965273176
  H        19.9774500231       12.5589614591       17.3885443066
  C        20.3690565842       24.5024674529       13.7891507897
  H        21.4233998079       24.8127685959       13.7639983122
  H        20.1322823688       24.1116344064       12.7859405722
  C        18.3907324986       13.4280173268       11.4125987783
  H        18.1182833829       12.4403444378       11.0462201453
  C        19.4656092664       17.3595961834       12.8902600740
  H        20.4996309551       17.6261549106       12.6280357735
  H        18.8150361921       18.1165044832       12.4300709663
  C        19.4842579392       25.6951901353       14.0759426697
  C        17.8125773452       27.8999898133       14.6267843949
  H        17.1690126058       28.7525902433       14.8337223001
  C        16.6650864472       12.9291483011       15.1342916917
  H        16.7066209236       13.1300128342       14.0648953393
  C        17.8503752364       12.9145234380       15.8784089092
  H        18.7998584362       13.1059670805       15.3801323654
  C        17.8333978168       12.6561391115       17.2571548527
  C        20.0003599851       26.8572670588       14.6687882547
  H        21.0606672032       26.9027336583       14.9138250404
  C        18.1168622563       25.6570881062       13.7568462280
  H        17.6998202751       24.7703772876       13.2791392288
  C        17.2866680944       26.7482274159       14.0305341021
  H        16.2307849245       26.7007989768       13.7701656964
  C        16.4613572951       22.1200221580       15.6376747253
  H        17.3579573581       21.5293824767       15.4193121034
  H        16.7490723909       23.1806808320       15.6672630219
  C        24.1005295512       14.4984844512       22.3713979303
  H        23.7838727765       13.8853264191       23.2251674207
  H        24.2139925703       15.5349890714       22.7066921316
  C        15.7923742579       22.3031727834       13.1999507348
  C        15.1517876185       23.3678107913       12.5463051503
  H        14.3301194467       23.8799795163       13.0459554973
  C        13.3707112047       15.8131422582       12.6033561772
  H        13.0266509294       15.0273295032       13.2745587516
  C        14.2575933323       18.0299267974       12.2623598555
  H        14.6059041534       18.9818151513       12.6628701001
  C        16.5969193473       12.4168798139       17.8797265939
  H        16.5617479532       12.2100122422       18.9496433746
  C        15.3645005002       21.8757960942       14.5880240211
  H        14.4514534676       22.4137627840       14.8785512912
  H        15.1154126188       20.8022238096       14.6015756525
  C        23.3293291451       16.5377559432       16.3031653881
  H        23.3258760210       17.2485289572       15.4648691021
  H        22.3088078641       16.1646930716       16.4458129171
  C        15.4410539086       12.6893072380       15.7654777490
  H        14.5176967590       12.6927505480       15.1891985897
  C        13.8985733575       17.2300566859       14.6425073358
  H        13.0844484521       16.6896959774       15.1452795723
  H        13.7756486897       18.2948797440       14.8898581456
  C        13.8244330315       17.0266324756       13.1443144790
  C        25.2774559996       23.7484313546       12.9535666716
  C        13.3510399016       15.6056427519       11.2203535935
  H        12.9883842087       14.6612456912       10.8196401148
  C        17.8248458287       15.7464656046       11.8316769072
  H        17.0978875126       16.5570921435       11.7879512828
  C        25.5640606397       23.6286680286       11.5847350779
  H        25.8266634296       22.6526804326       11.1791409563
  C        17.4678999679       14.4776722085       11.3634678779
  H        16.4701765673       14.3169086141       10.9596328996
  C        24.9055414524       26.1348628505       12.6206914728
  H        24.6553063989       27.1100451268       13.0332911055
  C        24.9479814682       25.0166149345       13.4590689366
  H        24.7310708708       25.1292478797       14.5211334048
  C        16.8522475406       21.6550776542       12.5416380769
  H        17.3665421639       20.8298690872       13.0350831814
  C        15.5548905635       23.7752916497       11.2696917269
  H        15.0444810896       24.6017356424       10.7793283361
  C        25.2720773577       22.5340738198       13.8572274852
  H        25.9893035443       21.7834562065       13.4976197870
  H        25.5839681275       22.8122652873       14.8750666549
  C        23.8667345309       21.9121601547       13.9273633066
  H        23.1355221600       22.6512238924       14.2712980811
  H        23.5485960070       21.5430893425       12.9439843868
  C        14.2408444599       17.8270749047       10.8786128661
  H        14.5753369745       18.6203221136       10.2130846992
  C        17.2595652849       22.0623546296       11.2673726386
  H        18.0816464057       21.5481123171       10.7733340713
  C        24.0116684061       14.6052271552       14.8013710505
  C        24.4070503501       15.0841699408       13.5412701783
  H        24.9459314831       16.0286041150       13.4764439550
  C        15.9672499619       15.8373572205       20.8879387625
  H        17.0318916636       15.8037096734       21.1456830687
  H        15.8471306807       15.3983675537       19.8865888290
  C        25.4210676233       13.9890412019       21.7717980236
  H        25.6676177721       14.6027750889       20.8921276796
  H        25.2993694570       12.9552612982       21.4209687477
  C        26.5294532679       14.0705462941       22.8003612902
  C        19.1733760765       27.9517944862       14.9428821468
  H        19.5925633272       28.8460847198       15.3998616486
  C        13.7890835781       16.6120157195       10.3530423047
  H        13.7716074055       16.4536549653        9.2768137288
  C        23.3205127469       13.3852454239       14.8637711320
  H        23.0077153921       13.0019916778       15.8341354320
  C        24.3230651643       15.3880398611       16.0586894400
  H        25.3390527944       15.8038745096       15.9979792472
  H        24.3070428441       14.7201291211       16.9322042274
  C        15.4103451771       12.4356824195       17.1417962193
  H        14.4626341744       12.2450494432       17.6413264061
  C        16.6118879231       23.1245661596       10.6264103794
  H        16.9281254467       23.4410106025        9.6346992341
  C        25.1908858949       26.0011367888       11.2579432327
  H        25.1605571124       26.8704172465       10.6045686169
  C        24.1308565419       14.3596727598       12.3780350401
  H        24.4518843590       14.7429193626       11.4117344968
  C        15.4790490046       13.6089292745       21.9611076243
  C        16.7180425921       13.1835551197       22.4712275103
  H        17.4149216136       13.9214458053       22.8706409710
  C        14.9423063941       11.2837746785       21.4545284916
  H        14.2438440284       10.5480534638       21.0609849687
  C        23.4534433305       13.1378488235       12.4561241047
  H        23.2492441931       12.5675026058       11.5522400108
  C        14.5991499534       12.6404379325       21.4530737318
  H        13.6350429748       12.9553565788       21.0562625595
  C        15.1236562260       15.0806240672       21.9268258614
  H        14.0562145773       15.2060073811       21.6995441392
  H        15.2959662097       15.5435743640       22.9112715267
  C        25.5225016739       24.7443326175       10.7422496593
  H        25.7520186389       24.6329782042        9.6846659217
  C        16.1796327688       10.8737066413       21.9606350743
  H        16.4487669144        9.8195721167       21.9617687103
  C        17.0665074562       11.8293987037       22.4691587070
  H        18.0324259596       11.5219147417       22.8663032730
  C        26.9300569066       12.9380931900       23.5257870476
  H        26.4620392707       11.9778471159       23.3139653490
  C        23.0464243938       12.6537784055       13.7031320440
  H        22.5218558959       11.7030223248       13.7746187706
  C        28.5285671143       14.2576769475       24.7820914834
  H        29.3033105560       14.3291681472       25.5425375416
  C        28.1378337423       15.3944983633       24.0655105424
  H        28.6103794557       16.3539906527       24.2660501321
  C        27.1463190943       15.3007082835       23.0841543260
  H        26.8430876551       16.1896065407       22.5313017224
  C        27.9223765376       13.0278451973       24.5082010840
  H        28.2238483194       12.1377120486       25.0563011959
