283
Energy =  -1697.5380179159
 Au        19.1490546474       13.1937092701       23.2935760891
 Au        22.6860253319       12.8915978224       23.0029801352
 Au        21.1957690187       15.5151519086       23.2886920310
 Au        20.7225278743       14.9056540123       20.6229934620
 Au        18.3082393517       16.3328528997       21.8741093753
 Au        17.7028775993       15.7354310048       18.8410102093
 Au        19.5710602749       18.0543753922       17.0603765922
 Au        17.3484072210       19.3921675282       18.9448224444
 Au        17.7985148317       19.0983266676       21.8636881425
 Au        19.7190092440       17.8769683811       19.8702605288
 Au        21.7032677501       16.6526033747       18.3212303613
 Au        22.6034077331       16.8251500322       21.2246831251
 Au        23.8534158399       14.4034674558       19.9223811766
 Au        20.3749895826       18.1458897495       22.5618221015
 Au        20.4928668530       18.3615809587       25.4200789702
 Au        20.0553452355       20.9912547722       23.0201363204
 Au        17.3452239876       22.4467871511       22.4691818005
 Au        17.2702705355       22.2063580902       19.3278922430
 Au        17.8956765937       20.4410295643       14.9984555568
 Au        19.1805130556       21.0350863254       17.5380199633
 Au        21.6139406371       19.4788337815       18.3473293505
 Au        19.5930843668       20.9458376379       20.2966903807
 Au        22.1956641817       20.1447630841       21.3271667711
 Au        21.3798815474       22.8617752608       21.2494931873
 Au        19.0493599760       24.6101934456       20.2754745090
 Au        21.3980039297       22.9291195326       18.1565824449
 Au        16.2060555271       25.3375192284       18.1308938396
 Au        18.4067123571       23.6509324981       16.6239547992
 Au        18.6713749438       27.8642951927       18.6089600878
 Au        21.3275469672       26.6723233549       20.9608303802
  S        20.8941703234       11.8287891573       24.1098115282
  C        20.6541054137       10.1396698296       23.3163989733
  C        19.3662122911        9.5623732277       23.9239390500
  H        19.4264956523        9.5095690314       25.0188656770
  H        19.2035081687        8.5441197928       23.5414375353
  H        18.4960169599       10.1766654062       23.6547103031
  C        20.5425510652       10.2414504056       21.7940191475
  H        19.6895407834       10.8713510040       21.5055466249
  H        20.4016007755        9.2385950281       21.3636356795
  H        21.4504752231       10.6836334292       21.3613115534
  C        21.8696048818        9.2942662101       23.7266294682
  H        22.7986042172        9.7152367781       23.3179213126
  H        21.7551182099        8.2711309324       23.3397603825
  H        21.9695606179        9.2371738633       24.8184666267
  S        24.6364541545       13.8572246624       22.0865543795
  C        25.8891832069       12.4642403346       21.9031381634
  C        27.1065787406       13.0758144467       21.1932730154
  H        26.8389009754       13.4242466623       20.1857878494
  H        27.8982391555       12.3184083523       21.0971827478
  H        27.5140331565       13.9267078816       21.7550005446
  C        25.3184012348       11.2963961784       21.0948416747
  H        24.4354551022       10.8711579499       21.5920898519
  H        26.0767451720       10.5057876875       20.9930434974
  H        25.0171696683       11.6257017180       20.0906005544
  C        26.2577017951       12.0224300767       23.3272350515
  H        26.6562019775       12.8589372551       23.9161278158
  H        27.0269130524       11.2375535911       23.2839998430
  H        25.3808336326       11.6191904649       23.8529110343
  S        23.2239602185       14.8770326320       17.6960311291
  C        24.7208589515       15.6160899727       16.8341004350
  C        24.2050938367       16.1805413486       15.5015589317
  H        23.7229735471       15.4014483633       14.8964553067
  H        25.0454151810       16.5915487055       14.9232724099
  H        23.4749256753       16.9836137056       15.6717851391
  C        25.3822155260       16.7035605233       17.6812864205
  H        24.6769191538       17.5094713450       17.9234996014
  H        26.2334956399       17.1345691748       17.1334291168
  H        25.7502567519       16.2891642168       18.6299398112
  C        25.6904556224       14.4495594517       16.5849924055
  H        26.0359894490       14.0173932549       17.5341505951
  H        26.5691194004       14.8121219984       16.0312216258
  H        25.2192824277       13.6526078264       15.9949655721
  S        18.9141085975       13.7888052977       19.4358111650
  C        19.3218009904       12.8422320283       17.8568235177
  C        19.6209034637       13.7722392852       16.6818019152
  H        18.7585713882       14.4158765660       16.4607712482
  H        19.8473368893       13.1722091672       15.7873584117
  H        20.4831890819       14.4188160783       16.8901886130
  C        18.0655753350       12.0016116123       17.5673919622
  H        17.8268257581       11.3334627125       18.4049459920
  H        18.2341933509       11.3851792991       16.6717882235
  H        17.1950128727       12.6449402002       17.3813149508
  C        20.5185739921       11.9340910323       18.1679809112
  H        21.4190876096       12.5217482972       18.3924054706
  H        20.7311815982       11.2992759655       17.2950983796
  H        20.3122106891       11.2775806446       19.0229513181
  S        17.2025861990       14.2878151118       22.5513392144
  C        16.1439686622       14.5623552795       24.0829397915
  C        16.8076979240       15.5251765943       25.0686518701
  H        17.7686459118       15.1297430899       25.4236711725
  H        16.1514277527       15.6780261205       25.9384949184
  H        16.9997030002       16.5007500287       24.6010371526
  C        15.9224891153       13.1854122925       24.7286721980
  H        15.4881980906       12.4720041279       24.0161834186
  H        15.2283722978       13.2871072650       25.5760748774
  H        16.8686330830       12.7687200028       25.1005123006
  C        14.8093617826       15.1180925957       23.5635673465
  H        14.9502253413       16.0706107742       23.0382525782
  H        14.1263846339       15.2911556943       24.4080433343
  H        14.3274238387       14.4146917467       22.8719858188
  S        20.6722477171       16.0100644888       25.6277586593
  C        22.1168893524       15.6672498046       26.7811442680
  C        23.4271765379       16.2348435439       26.2361435875
  H        23.6732281084       15.7857652884       25.2647600439
  H        24.2465956276       16.0161869457       26.9372185597
  H        23.3630306681       17.3231772266       26.1054938073
  C        21.7601418607       16.3017873148       28.1350411727
  H        21.6869926961       17.3951878785       28.0525007832
  H        22.5418639345       16.0610125079       28.8706068723
  H        20.8029449239       15.9232122643       28.5164432795
  C        22.2002079024       14.1393128910       26.9134795754
  H        21.2517517603       13.7105372789       27.2615758360
  H        22.9814058587       13.8795976342       27.6429241207
  H        22.4592190008       13.6692607649       25.9541761735
  S        24.0842139683       18.7242771162       20.8888173003
  C        25.3614224182       18.7243683680       22.2671813293
  C        25.9259427804       20.1470677580       22.3677849972
  H        26.3046643207       20.5011328560       21.4001199832
  H        26.7572311330       20.1648825590       23.0881021243
  H        25.1564353353       20.8494773939       22.7126061919
  C        24.7585466311       18.2783519166       23.5971061838
  H        23.9283564378       18.9323282885       23.8922365370
  H        25.5259817189       18.3073486288       24.3851543553
  H        24.3710157994       17.2537681018       23.5244195571
  C        26.4507910724       17.7401986433       21.8070615128
  H        26.8791417927       18.0385375894       20.8412485282
  H        26.0491763637       16.7218693090       21.7122964783
  H        27.2631139354       17.7216228009       22.5489273932
  S        16.2545692769       17.4183872580       18.0313918576
  C        14.5437762298       17.1062727890       18.7477955010
  C        14.5121685646       17.3415062938       20.2567094529
  H        15.2321261694       16.6878197383       20.7671946952
  H        13.5057608585       17.1256025921       20.6460335027
  H        14.7665513829       18.3801942741       20.5056242705
  C        14.1732811075       15.6541716242       18.4094469483
  H        14.2421021927       15.4629817756       17.3306843317
  H        13.1380568617       15.4582218668       18.7261683492
  H        14.8356369096       14.9473953395       18.9282143497
  C        13.6122338715       18.0799409098       18.0093358158
  H        13.8986314924       19.1230515714       18.1934310723
  H        12.5800553052       17.9413051508       18.3633987375
  H        13.6294842620       17.9043104723       16.9258639680
  S        18.2853274058       18.1113845876       15.0359144641
  C        19.4091692724       17.6945438850       13.5875925514
  C        19.7401301001       16.2006243760       13.7266701073
  H        20.3146347842       16.0074010360       14.6427788903
  H        20.3427619945       15.8772171564       12.8653920250
  H        18.8299160872       15.5875050827       13.7550460134
  C        18.5874301824       17.9480893179       12.3138439469
  H        17.6535390309       17.3709722661       12.3164534476
  H        19.1727263133       17.6483930182       11.4320790282
  H        18.3329386842       19.0121940903       12.2128346028
  C        20.6866833021       18.5342921972       13.5927959960
  H        20.4558014249       19.6060269456       13.5261868815
  H        21.3174460036       18.2593433159       12.7342593505
  H        21.2593019444       18.3644958209       14.5146436437
  S        19.9987836709       20.6768180969       25.4152020011
  C        21.4602789861       21.6063731388       26.1471168316
  C        22.7825763076       21.2036941091       25.4936675188
  H        22.9915158039       20.1382449076       25.6584886676
  H        23.6049207512       21.7896657834       25.9306962305
  H        22.7593231686       21.3871601343       24.4103050067
  C        21.4681077097       21.2784322121       27.6490073312
  H        20.5132704118       21.5409923462       28.1227792102
  H        22.2652829737       21.8508423464       28.1459721655
  H        21.6545627819       20.2093469040       27.8203724628
  C        21.1666662395       23.0976218462       25.9206495119
  H        21.1535531766       23.3465919622       24.8503001721
  H        21.9500982196       23.6997023187       26.4039369139
  H        20.2002300386       23.3865365968       26.3542365432
  S        15.9259980130       20.5617709021       22.3952462563
  C        15.2925094180       20.2629809906       24.1410617596
  C        16.4276752434       20.1388215106       25.1554855645
  H        17.0988678519       19.3067241325       24.9013271608
  H        16.0130538469       19.9541148965       26.1577107094
  H        17.0292915377       21.0560878795       25.1931780248
  C        14.4736582985       18.9667023503       24.0727940262
  H        13.6718877147       19.0327224278       23.3256104477
  H        14.0133447207       18.7674976728       25.0516432401
  H        15.1157013296       18.1146945190       23.8176229699
  C        14.3821277089       21.4544218691       24.4788204911
  H        14.9563953425       22.3903557156       24.5123191623
  H        13.9191881517       21.2962687669       25.4641785256
  H        13.5796488142       21.5709270225       23.7386363097
  S        23.1396615504       21.3222578928       18.0734176330
  C        23.7953207839       21.4117038473       16.3115106061
  C        22.6724820049       21.3618641164       15.2751902798
  H        22.0773172151       20.4466335492       15.3855042642
  H        23.1007942928       21.3818662776       14.2618151220
  H        21.9953612652       22.2199978283       15.3856080699
  C        24.5668596454       22.7385328702       16.2186740006
  H        23.8942980710       23.5954019969       16.3615572363
  H        25.0309916592       22.8242557099       15.2249159277
  H        25.3628063624       22.7952852475       16.9727348142
  C        24.7493082442       20.2209178123       16.1458803283
  H        25.5333912511       20.2228843197       16.9143886909
  H        25.2351300345       20.2705336156       15.1603500477
  H        24.2060117979       19.2698736770       16.2149246050
  S        22.4416980800       24.8952446391       22.0475158536
  C        24.2286706039       24.9662420482       21.4738852577
  C        24.3386383035       25.0348902326       19.9493001972
  H        23.8720514585       24.1592304287       19.4774664173
  H        25.3985150394       25.0664362084       19.6548812998
  H        23.8418656861       25.9342213695       19.5604527651
  C        24.9070550296       23.6985861345       22.0086185016
  H        24.8056458826       23.6170897991       23.0988040837
  H        25.9794345792       23.7215531544       21.7656382390
  H        24.4690103907       22.8009440479       21.5511942849
  C        24.8358345339       26.2194440326       22.1248967825
  H        24.3259278785       27.1294851811       21.7794621092
  H        25.8994603794       26.2963603067       21.8552520284
  H        24.7604286741       26.1792216365       23.2192713133
  S        18.5330462717       24.4803456670       22.5997044245
  C        17.2954909634       25.8050703075       23.1217343977
  C        16.0424720675       25.8116225343       22.2488778011
  H        16.2899788000       26.0283511797       21.2001979266
  H        15.3501325285       26.5884662588       22.6067173472
  H        15.5259147215       24.8433371421       22.2794050118
  C        16.9494063045       25.4857472499       24.5852531949
  H        16.4373132700       24.5171837907       24.6678456036
  H        16.2816351574       26.2650161266       24.9810607702
  H        17.8487776546       25.4545659580       25.2144493348
  C        18.0357582550       27.1460499145       23.0265362708
  H        18.9740368387       27.1359152221       23.5962348563
  H        17.3963425218       27.9439415144       23.4318852770
  H        18.2701125355       27.3955664426       21.9830268892
  S        15.2913342733       23.6094980620       19.4354135155
  C        13.8592620212       22.8137258844       18.5188685773
  C        14.2956512786       22.1944443017       17.1917649121
  H        14.7103785725       22.9546682933       16.5175348388
  H        13.4312846964       21.7271048057       16.6964961100
  H        15.0647226457       21.4244664669       17.3475586525
  C        13.3097192051       21.7489379372       19.4808239905
  H        14.0722305264       20.9938383221       19.7156470210
  H        12.4480320215       21.2441798899       19.0203815010
  H        12.9793431792       22.1983319524       20.4265178729
  C        12.8147891948       23.9181256581       18.2904370268
  H        12.5215989972       24.3965340174       19.2340074556
  H        11.9138958575       23.4828551029       17.8330777270
  H        13.2056344248       24.6938237042       17.6177078689
  S        17.1421178289       22.6782192312       14.8561053254
  C        17.8683515708       23.3891254604       13.2723472536
  C        19.3899676543       23.2317521509       13.2206267402
  H        19.8664069526       23.7434422384       14.0682179221
  H        19.7756156686       23.6669694040       12.2865905105
  H        19.6779140813       22.1721500748       13.2566707658
  C        17.1974271795       22.6405183707       12.1102996630
  H        17.4605507527       21.5736737614       12.1220786467
  H        17.5329522436       23.0681827339       11.1541093697
  H        16.1037857972       22.7240434002       12.1565093284
  C        17.4704323706       24.8738873208       13.2571377184
  H        16.3806997944       24.9972522947       13.3105705885
  H        17.8210032527       25.3360300019       12.3227156322
  H        17.9173209265       25.4157866972       14.1021748218
  S        17.0612135498       27.2323958533       17.0056481960
  C        15.7146279728       28.5453473813       17.0558052699
  C        15.1981743627       28.7756871846       18.4783861632
  H        14.7816099504       27.8495466746       18.8979469523
  H        14.4093443875       29.5426625172       18.4684250627
  H        16.0085833539       29.1147132092       19.1382505525
  C        16.3423185902       29.8269293071       16.4861915052
  H        17.1636955753       30.1783755742       17.1257967633
  H        15.5818251589       30.6197051707       16.4340202399
  H        16.7373797848       29.6656961512       15.4746228562
  C        14.5888607726       28.0419331322       16.1390249108
  H        14.9546421978       27.8492306437       15.1218823661
  H        13.7939050030       28.7994973050       16.0789042521
  H        14.1517310528       27.1126050618       16.5297688087
  S        20.2762372909       28.6340942741       20.1543568101
  C        21.5584962049       29.5581749456       19.1347050204
  C        22.6624233355       29.9883337618       20.1127027218
  H        23.4171289586       30.5833284496       19.5781073241
  H        23.1600187966       29.1134722860       20.5537595063
  H        22.2586886070       30.6009137844       20.9292944761
  C        20.8453380802       30.7910066956       18.5577557579
  H        20.0383307690       30.4932000070       17.8739494481
  H        21.5657473203       31.4039378324       17.9966437169
  H        20.4128225919       31.4127854040       19.3523563262
  C        22.1259276865       28.6824296247       18.0145946377
  H        22.6073985664       27.7837569644       18.4234993877
  H        22.8732845403       29.2504668797       17.4406000814
  H        21.3311312521       28.3555581164       17.3303160028
  S        19.9123307134       24.7555136424       18.0652887781
