498
Energy =  -2366.1023740405
 Au        24.8472888912       22.7612670511       24.9734410775
 Au        26.9917940490       24.5032214904       24.7781409413
 Au        25.9204463678       27.1426215902       20.2734223724
 Au        23.7061804994       20.1155757114       24.9353526041
 Au        27.4667449738       27.6157461960       23.3460738295
  C        30.1878573971       25.8458824628       24.2645586732
  C        30.8982149909       24.9337004973       25.2844341069
  H        30.3003586330       24.0257384369       25.4474851481
  H        30.9791467624       25.4495203608       26.2525916279
  C        30.0504037537       25.1143144148       22.9213965522
  H        29.5208262659       25.7615166985       22.2046773765
  H        29.4338620321       24.2115211444       23.0521646407
  C        31.0214418358       27.1309762772       24.0717443274
  H        31.1038621983       27.6699299027       25.0270248000
  H        30.5027695200       27.7990706136       23.3661395945
  C        32.4241761751       26.7610309542       23.5374963220
  H        33.0059219216       27.6849720907       23.3996260953
  C        32.2837600033       26.0254363891       22.1896090344
  H        33.2790984683       25.7745793618       21.7926210499
  H        31.7972188091       26.6796935254       21.4497620409
  C        33.1344322890       25.8439142704       24.5533362938
  H        34.1416338974       25.5887344523       24.1904557910
  H        33.2603973456       26.3678773879       25.5128612526
  C        32.3012848509       24.5626335124       24.7528347710
  H        32.7953216515       23.9073816460       25.4868359636
  C        32.1594165454       23.8240408469       23.4071867064
  H        33.1515713316       23.5344422054       23.0292250160
  H        31.5788584832       22.8988676418       23.5442201753
  C        31.4521211756       24.7425332815       22.3903274299
  H        31.3369849439       24.2147059498       21.4310712065
  C        25.1700918373       17.9106709593       27.2842225892
  C        23.9965759869       16.9184205966       27.1685337039
  H        24.2251563579       16.1583194561       26.4062264440
  H        23.0926439872       17.4528334911       26.8395483681
  C        26.4386327292       17.1393348658       27.7065038060
  H        26.6847254010       16.3828250867       26.9468315270
  H        27.2901048290       17.8357490852       27.7586256729
  C        24.8407400500       18.9823782741       28.3340447444
  H        25.6694559257       19.7055322291       28.3918085392
  H        23.9459289965       19.5418260757       28.0192896881
  C        23.7548467899       16.2462927455       28.5394373959
  H        22.9102298840       15.5466953684       28.4456592246
  C        25.0221443921       15.4807235171       28.9689088175
  H        25.2549933590       14.6916325280       28.2380025442
  H        24.8549456658       14.9843446651       29.9368025455
  C        26.2015842375       16.4677244124       29.0787818517
  H        27.1143757731       15.9268597036       29.3713461360
  C        25.8727601348       17.5457628784       30.1309520040
  H        26.7177238391       18.2440417063       30.2358141380
  H        25.7196143937       17.0761225107       31.1143698941
  C        24.6030689568       18.3093139453       29.7033296155
  H        24.3671649154       19.0886576415       30.4441497837
  C        23.4217856312       17.3255185911       29.5884348066
  H        23.2228803216       16.8553297037       30.5632513959
  H        22.5104991799       17.8700997091       29.2945115016
  C        27.7662828269       29.9653112415       20.8881299477
  C        28.9734080799       29.1193139106       20.4567199487
  H        28.6387530367       28.3379903914       19.7569635682
  H        29.3885003894       28.6042045880       21.3375229648
  C        27.1569500183       30.6609739468       19.6544558253
  H        26.2805105842       31.2539678065       19.9557326094
  H        26.8050185977       29.8990989356       18.9416632915
  C        28.2253365431       31.0337644244       21.9023656962
  H        28.6370913201       30.5368530427       22.7943268150
  H        27.3620456357       31.6310558926       22.2323660293
  C        30.0375118880       30.0251936035       19.7993313109
  H        30.8944962544       29.4053569589       19.4946453117
  C        29.4286760963       30.7175698607       18.5632279824
  H        30.1832899093       31.3533232770       18.0760640786
  H        29.1153091297       29.9648148635       17.8236398164
  C        28.2200063190       31.5705417829       18.9971689660
  H        27.7743658525       32.0593980655       18.1178772309
  C        28.6796466466       32.6375595341       20.0108317254
  H        29.4232533003       33.3030730885       19.5469213397
  H        27.8279576325       33.2664941363       20.3111013505
  C        29.2886640867       31.9437281181       21.2457338679
  H        29.6089519407       32.7002499218       21.9776782353
  C        30.4984369028       31.0913473579       20.8135902386
  H        30.9528461640       30.6071780834       21.6912898767
  H        31.2705700191       31.7332494996       20.3633477988
  S        28.5473713315       26.3432711836       25.0076643017
  S        25.4776584952       18.6287096347       25.5861739902
  S        26.4187932254       28.9614197549       21.7079704399
 Au        24.9734545377       24.8473109464       22.7612321750
 Au        24.7781566578       26.9918016950       24.5032090041
 Au        20.2734361776       25.9204857584       27.1425920060
 Au        24.9353592676       23.7062236601       20.1155351557
 Au        23.3460914931       27.4667876460       27.6157289699
  C        24.2645651270       30.1879144954       25.8458414636
  C        25.2844584071       30.8982656679       24.9336718394
  H        25.4475112342       30.3003975662       24.0257166539
  H        26.2526052896       30.9791881765       25.4495097064
  C        22.9214079261       30.0504333385       25.1142685190
  H        22.2046779404       29.5208632791       25.7614639344
  H        23.0521810256       29.4339034943       24.2114688807
  C        24.0717364668       31.0214893806       27.1309418618
  H        25.0270120853       31.1038996702       27.6699035001
  H        23.3661214470       30.5028211592       27.7990304119
  C        23.5374830078       32.4242144683       26.7609630404
  H        23.3996202146       33.0059568999       27.6849096625
  C        22.1895879487       32.2838043341       26.0253794763
  H        21.7926283064       33.2791504937       25.7745097682
  H        21.4497522440       31.7972546456       26.6796407136
  C        24.5533567985       33.1344780277       25.8438918504
  H        24.1904653709       34.1416734704       25.5886989470
  H        25.5128770902       33.2604472276       26.3678585656
  C        24.7528280286       32.3013258272       24.5626077081
  H        25.4868503434       32.7953524935       23.9073696312
  C        23.4072063016       32.1594581099       23.8239717727
  H        23.0292592809       33.1516228450       23.5343922176
  H        23.5442608661       31.5788844801       22.8988137660
  C        22.3903670177       31.4521650315       24.7424890681
  H        21.4311116029       31.3370315887       24.2146513623
  C        27.2842066116       25.1701272762       17.9106473428
  C        27.1685340858       23.9966221571       16.9183808205
  H        26.4062277296       24.2252100294       16.1582792400
  H        26.8395323392       23.0926841171       17.4527738880
  C        27.7065091860       26.4386645430       17.1393187636
  H        26.9468320890       26.6847617724       16.3828132680
  H        27.7586170736       27.2901371987       17.8357326972
  C        28.3340464654       24.8407677811       18.9823350620
  H        28.3918085591       25.6694807166       19.7054935494
  H        28.0192905264       23.9459643813       19.5417955779
  C        28.5394327095       23.7548754682       16.2462492232
  H        28.4456520302       22.9102725138       15.5466371606
  C        28.9689088366       25.0221795559       15.4806922683
  H        28.2380087440       25.2550440482       14.6916002904
  H        29.9368119508       24.8550025925       14.9843238822
  C        29.0787717366       26.2016325870       16.4676770962
  H        29.3713419473       27.1144372621       15.9268411019
  C        30.1309302656       25.8727958103       17.5457244902
  H        30.2358192402       26.7177423054       18.2440211814
  H        31.1143548732       25.7196523090       17.0760952984
  C        29.7033419229       24.6031029294       18.3092907526
  H        30.4441567597       24.3671820745       19.0886323135
  C        29.5884213691       23.4218285117       17.3254862839
  H        30.5632331115       23.2229038745       16.8552925701
  H        29.2944959815       22.5105348858       17.8700554197
  C        20.8881345572       27.7663003433       29.9652828187
  C        20.4567160705       28.9734284200       29.1192952501
  H        19.7569567505       28.6387888961       28.3379679274
  H        21.3375132712       29.3885297177       28.6041856023
  C        19.6544653991       27.1569655345       30.6609514747
  H        19.9557456473       26.2805296266       31.2539489949
  H        18.9416808318       26.8050341924       29.8990713386
  C        21.9023770817       28.2253660988       31.0337220333
  H        22.7943374490       28.6371359237       30.5368228627
  H        22.2323721675       27.3620770632       31.6310163444
  C        19.7993251856       30.0375448556       30.0251591704
  H        19.4946220995       30.8945285877       29.4053351039
  C        18.5632447781       29.4286905534       30.7175616503
  H        18.0760537206       30.1832889829       31.3533123005
  H        17.8236478876       29.1153217733       29.9648133489
  C        18.9971652039       28.2200069173       31.5705258628
  H        18.1178790170       27.7743644998       32.0593868384
  C        20.0108378343       28.6796741731       32.6375232815
  H        19.5469379110       29.4232630560       33.3030614287
  H        20.3111134222       27.8279853089       33.2664582837
  C        21.2457589243       29.2886785885       31.9437115966
  H        21.9776915761       29.6089873317       32.7002320866
  C        20.8135715810       30.4984421806       31.0913395111
  H        21.6912642905       30.9528686613       30.6071713914
  H        20.3633358774       31.2705944797       31.7332233577
  S        25.0076616051       28.5474193922       26.3432392026
  S        25.5861616657       25.4777001200       18.6286783634
  S        21.7079863611       26.4188281794       28.9613848215
 Au        22.7612376065       24.9734740222       24.8472971193
 Au        24.5031988864       24.7781737403       26.9917933503
 Au        27.1425910924       20.2734374924       25.9204400199
 Au        20.1155493173       24.9353917778       23.7062052801
 Au        27.6156985217       23.3460887924       27.4667418540
  C        25.8458483636       24.2646023212       30.1878905511
  C        24.9336622693       25.2844852385       30.8982326014
  H        24.0257098809       25.4475335979       30.3003626125
  H        25.4495076049       26.2526288408       30.9791540962
  C        25.1142837369       22.9214406271       30.0504004469
  H        25.7614797432       22.2047065876       29.5208356492
  H        24.2114846092       23.0522070096       29.4338678884
  C        27.1309583492       24.0717703107       31.0214468908
  H        27.6699093816       25.0270523257       31.1038696957
  H        27.7990399736       23.3661569391       30.5027716450
  C        26.7609743051       23.5375264427       32.4241732727
  H        27.6849189581       23.3996553375       33.0059181729
  C        26.0254022486       22.1896251286       32.2837736052
  H        25.7745334991       21.7926589336       33.2791170861
  H        26.6796579329       21.4497852748       31.7972232070
  C        25.8439000255       24.5533846398       33.1344567050
  H        25.5886995357       24.1904896114       34.1416472058
  H        26.3678653253       25.5129084099       33.2604070769
  C        24.5626217321       24.7528477087       32.3012970900
  H        23.9073742560       25.4868659199       32.7953180778
  C        23.8239894353       23.4072225918       32.1594222800
  H        23.5344095319       23.0292693950       33.1515853997
  H        22.8988235672       23.5442748470       31.5788609812
  C        24.7425114706       22.3903887443       31.4521265271
  H        24.2146722183       21.4311349112       31.3369981590
  C        17.9106501439       27.2842524531       25.1700944641
  C        16.9184032310       27.1685628162       23.9965733604
  H        16.1582942721       26.4062652814       24.2251622576
  H        17.4528077984       26.8395752947       23.0926381036
  C        17.1393200529       27.7065369200       26.4386361078
  H        16.3828105969       26.9468595087       26.6847157431
  H        17.8357310817       27.7586470236       27.2901100093
  C        18.9823539703       28.3340809419       24.8407499059
  H        19.7055002293       28.3918478191       25.6694728362
  H        19.5418209361       28.0193328536       23.9459485141
  C        16.2462767987       28.5394663582       23.7548433939
  H        15.5466723240       28.4456979973       22.9102316382
  C        15.4806990448       28.9689493167       25.0221329885
  H        14.6916107715       28.2380418008       25.2549865094
  H        14.9843335230       29.9368521092       24.8549553281
  C        16.4676852952       29.0787993630       26.2015860907
  H        15.9268391459       29.3713662437       27.1143873222
  C        17.5457280227       30.1309700079       25.8727708300
  H        18.2440169517       30.2358498941       26.7177246467
  H        17.0760946946       31.1143913613       25.7196245606
  C        18.3093000488       29.7033719145       24.6030843197
  H        19.0886416009       30.4441919787       24.3671739549
  C        17.3255065190       29.5884645315       23.4217994100
  H        16.8553195917       30.5632788959       23.2228726820
  H        17.8700874484       29.2945424151       22.5105105703
  C        29.9652504630       20.8881725611       27.7662568275
  C        29.1193075788       20.4567402966       28.9734099320
  H        28.3379738960       19.7569963658       28.6387482090
  H        28.6041777515       21.3375359306       29.3884951199
  C        30.6609476349       19.6544966687       27.1569678721
  H        31.2539246315       19.9557608577       26.2805098383
  H        29.8990772867       18.9417075148       26.8050148298
  C        31.0337276217       21.9023752463       28.2253297364
  H        30.5368341366       22.7943494054       28.6370834900
  H        31.6310225312       22.2323993697       27.3620503753
  C        30.0251576057       19.7993430542       30.0375336491
  H        29.4053181051       19.4946627521       30.8945137124
  C        30.7175538337       18.5632764385       29.4286509862
  H        31.3532952799       18.0761018476       30.1832707546
  H        29.9648038949       17.8236717076       29.1153068303
  C        31.5705432908       18.9971793387       28.2199791488
  H        32.0593833627       18.1178845633       27.7743350032
  C        32.6375146524       20.0108788927       28.6796415203
  H        33.3030469792       19.5469556352       29.4232253390
  H        33.2664575822       20.3111334199       27.8279501455
  C        31.9437171291       21.2457960443       29.2886674389
  H        32.7002487135       21.9777245843       29.6089568821
  C        31.0913229363       20.8136095410       30.4984135313
  H        30.6071609783       21.6913076772       30.9528373387
  H        31.7332211166       20.3633792946       31.2705594862
  S        26.3432415964       25.0076732570       28.5473873061
  S        18.6286876612       25.5862124964       25.4776733278
  S        28.9613630431       21.7080117802       26.4187646357
 Au        22.1526692657       24.2387540575       22.0265305214
 Au        20.0081547985       22.4968101535       22.2218535702
 Au        21.0795255052       19.8574215787       26.7265407407
 Au        23.2937999100       26.8844419806       22.0646062700
 Au        19.5332177104       19.3842863265       23.6538916572
  C        16.8120639450       21.1541558891       22.7353995261
  C        16.1017398872       22.0663436993       21.7155049171
  H        16.6996081359       22.9742969830       21.5524541619
  H        16.0208090297       21.5504790298       20.7473718618
  C        16.9495774445       21.8857307953       24.0785533880
  H        17.4791404191       21.2385454933       24.7952996420
  H        17.5661041967       22.7885343144       23.9477859846
  C        15.9785213355       19.8690384820       22.9282393454
  H        15.8960929389       19.3300922792       21.9729562649
  H        16.4971889254       19.2009707551       23.6338709543
  C        14.5758073565       20.2390398923       23.4624976183
  H        13.9940464774       19.3151032216       23.6003605779
  C        14.7161955436       20.9746405396       24.8103851758
  H        13.7208482038       21.2254980770       25.2073484781
  H        15.2027444545       20.3203797297       25.5502244174
  C        13.8655186376       21.1561086080       22.4466370976
  H        12.8583203547       21.4113143118       22.8095088313
  H        13.7395576984       20.6321487138       21.4871096630
  C        14.6986782134       22.4373836583       22.2471434576
  H        14.2046533738       23.0926333084       21.5131272840
  C        14.8405429155       23.1760265012       23.5927632951
  H        13.8483827287       23.4656097235       23.9707182587
  H        15.4211110344       24.1011905271       23.4557168253
  C        15.5478521551       22.2575201914       24.6096013165
  H        15.6629783217       22.7853558014       25.5688573753
  C        21.8298779022       29.0893604090       19.7157704731
  C        23.0033828927       30.0816223314       19.8314564875
  H        22.7747889001       30.8417227926       20.5937600163
  H        23.9073207941       29.5472180458       20.1604340495
  C        20.5613303526       29.8606775661       19.2934732103
  H        20.3152378503       30.6171856989       20.0531500008
  H        19.7098515783       29.1642721459       19.2413615245
  C        22.1592317950       28.0176781313       18.6659233147
  H        21.3305285555       27.2945086827       18.6081659772
  H        23.0540371700       27.4582196707       18.9806800743
  C        23.2451187373       30.7537543229       18.4605579413
  H        24.0897185898       31.4533692906       18.5543320292
  C        21.9778233527       31.5193205403       18.0310756307
  H        21.7449469735       32.3084012800       18.7619850412
  H        22.1449868693       32.0157028672       17.0631777509
  C        20.7983677960       30.5323373338       17.9212172616
  H        19.8855602124       31.0731661868       17.6286419587
  C        21.1271908869       29.4542939098       16.8690513429
  H        20.2822515578       28.7559897899       16.7641604452
  H        21.2803442329       29.9239180565       15.8856257405
  C        22.3968883912       28.6907270925       17.2966286541
  H        22.6328146366       27.9113835889       16.5558182008
  C        23.5781638161       29.6745304109       17.4115542939
  H        23.7770863906       30.1447263362       16.4367436868
  H        24.4894608588       29.1299642697       17.7054747102
  C        19.2337042464       17.0347195786       26.1118454337
  C        18.0265813222       17.8807147483       26.5432641961
  H        18.3612269063       18.6620381016       27.2430249060
  H        17.6114749502       18.3958240052       25.6624671280
  C        19.8430358521       16.3390535695       27.3455181828
  H        20.7194795566       15.7460697083       27.0442319686
  H        20.1949698125       17.1009313883       28.0583073055
  C        18.7746492463       15.9662742981       25.0976039416
  H        18.3628780095       16.4631856960       24.2056508497
  H        19.6379386330       15.3689834583       24.7676021773
  C        16.9624705836       16.9748377177       27.2006457786
  H        16.1054854944       17.5946628156       27.5053509992
  C        17.5713126373       16.2824505878       28.4367412956
  H        16.8167126331       15.6466881130       28.9239154854
  H        17.8846860874       17.0351941868       29.1763393148
  C        18.7799880226       15.4294809312       28.0028125454
  H        19.2256416170       14.9406199285       28.8820947493
  C        18.3203445351       14.3624787787       26.9891329864
  H        17.5767552712       13.6969459902       27.4530450017
  H        19.1720337657       13.7335422314       26.6888615199
  C        17.7113252695       15.0563029856       25.7542274512
  H        17.3910298615       14.2997774524       25.0222919097
  C        16.5015520408       15.9086691034       26.1864009293
  H        16.0471395357       16.3928452260       25.3087053933
  H        15.7294141370       15.2667698044       26.6366385499
  S        18.4525646837       20.6567682799       21.9923227996
  S        21.5223155946       28.3713056316       21.4138119123
  S        20.5811773698       18.0386256087       25.2919987557
 Au        22.0265125055       22.1527117695       24.2387480232
 Au        22.2218109035       20.0082393182       22.4967574363
 Au        26.7265533746       21.0795548698       19.8573897089
 Au        22.0646139037       23.2938183212       26.8844371676
 Au        23.6538989879       19.5332536900       19.3842564352
  C        22.7354126133       16.8120944431       21.1541149224
  C        21.7155156225       16.1017973104       22.0663203003
  H        21.5524884422       16.6996407411       22.9742914018
  H        20.7473711286       16.0208571580       21.5504784270
  C        24.0785604620       16.9496280668       21.8856951495
  H        24.7952983046       17.4791801615       21.2384938451
  H        23.9478007553       17.5661483750       22.7885032391
  C        22.9282286634       15.9785569014       19.8689910784
  H        21.9729314630       15.8961371533       19.3300707920
  H        23.6338554547       16.4972404384       19.2009313934
  C        23.4624805478       14.5758427851       20.2390084219
  H        23.6003443626       13.9940972004       19.3150612420
  C        24.8103842281       14.7162319604       20.9745763612
  H        25.2073574932       13.7208886388       21.2254308944
  H        25.5502139877       15.2027912472       20.3203132763
  C        22.4466278323       13.8655556790       21.1560887860
  H        22.8095019151       12.8583523558       21.4112677183
  H        21.4871048512       13.7396121689       20.6321172008
  C        22.2471564189       14.6987335168       22.4373537871
  H        21.5131544627       14.2046872587       23.0926022654
  C        23.5927945720       14.8405749835       23.1759746185
  H        23.9707499988       13.8484154894       23.4655583305
  H        23.4557479874       15.4211374472       24.1011418171
  C        24.6096120210       15.5478964077       22.2574553147
  H        25.5688696817       15.6630151906       22.7852889516
  C        19.7157651948       21.8299279570       29.0893367836
  C        19.8314287006       23.0034561803       30.0815737114
  H        20.5937365965       22.7748526907       30.8416680942
  H        20.1604277024       23.9073750207       29.5471491798
  C        19.2934626955       20.5613764925       29.8606417075
  H        20.0531338810       20.3153037025       30.6171619955
  H        19.2413608951       19.7098915290       29.1642459768
  C        18.6659280337       22.1592540047       28.0176354592
  H        18.6081617298       21.3305475936       27.2944696962
  H        18.9806740790       23.0540548013       27.4581630464
  C        18.4605214229       23.2451639825       30.7536988552
  H        18.5543093388       24.0897823418       31.4532924460
  C        18.0310475119       21.9778786168       31.5192861450
  H        18.7619683977       21.7450249265       32.3083614031
  H        17.0631407659       22.1450628238       32.0156399527
  C        17.9212105739       20.7984268292       30.5322986600
  H        17.6286316971       19.8856256163       31.0731375250
  C        16.8690472627       21.1272340209       29.4542455593
  H        16.7641567062       20.2822848521       28.7559533053
  H        15.8856180753       21.2803811921       29.9238644228
  C        17.2966238922       22.3969222946       28.6906629635
  H        16.5558081437       22.6328373089       27.9113209759
  C        17.4115400561       23.5782092120       29.6744542222
  H        16.4367271315       23.7771306110       30.1446475938
  H        17.7054528547       24.4895037676       29.1298824123
  C        26.1118492183       19.2337182272       17.0347084776
  C        26.5432593581       18.0265847040       17.8806915284
  H        27.2430132097       18.3612506323       18.6620130429
  H        25.6624504160       17.6115048148       18.3958024140
  C        27.3455131063       19.8430544267       16.3390306428
  H        27.0442463176       20.7195013399       15.7460421700
  H        28.0583076036       20.1949774943       17.1009095407
  C        25.0976136260       18.7746761546       15.9662495573
  H        24.2056494096       18.3629100884       16.4631471899
  H        24.7676113797       19.6379594364       15.3689491566
  C        27.2006434745       16.9624820977       16.9748068034
  H        27.5053325176       16.1055046890       17.5946514609
  C        28.4367444842       17.5713239254       16.2824313946
  H        28.9239070776       16.8167128398       15.6466731965
  H        29.1763344017       17.8846936714       17.0351844038
  C        28.0028162316       18.7800040733       15.4294687572
  H        28.8821024969       19.2256449274       14.9406033421
  C        26.9891442755       18.3203592209       14.3624597653
  H        27.4530484381       17.5767652643       13.6969259286
  H        26.6888719440       19.1720450210       13.7335188053
  C        25.7542263477       17.7113497971       15.0562713124
  H        25.0222932096       17.3910453287       14.2997475477
  C        26.1863845501       16.5015764512       15.9086459929
  H        25.3086910491       16.0471596379       16.3928214867
  H        26.6366299830       15.7294326050       15.2667576292
  S        21.9923221581       18.4525999026       20.6567403668
  S        21.4137983441       21.5223367306       28.3712863054
  S        25.2920068979       20.5812133017       18.0385883268
 Au        24.2387542981       22.0265540814       22.1526692410
 Au        22.4967882015       22.2218549023       20.0081791970
 Au        19.8573851592       26.7265754103       21.0795307248
 Au        26.8844328363       22.0646357237       23.2937932356
 Au        19.3842799598       23.6539377477       19.5332396653
  C        21.1541327472       22.7354287628       16.8121013256
  C        22.0663296815       21.7155609996       16.1017544132
  H        22.9742866912       21.5525144194       16.6996173933
  H        21.5504843834       20.7474179294       16.0208193892
  C        21.8856950690       24.0785923985       16.9495741237
  H        21.2385069519       24.7953284334       17.4791487716
  H        22.7884856630       23.9478229344       17.5661193012
  C        19.8690257621       22.9282613814       15.9785411929
  H        19.3300701688       21.9729837604       15.8960909464
  H        19.2009407112       23.6338784346       16.4972072769
  C        20.2389841345       23.4625129899       14.5758114219
  H        19.3150558426       23.6003913134       13.9940448799
  C        20.9745834820       24.8103985228       14.7162053144
  H        21.2254482019       25.2073914704       13.7208714872
  H        20.3203287541       25.5502419189       15.2027566868
  C        21.1560942669       22.4466835399       13.8655321412
  H        21.4112941235       22.8095412036       12.8583284298
  H        20.6321345614       21.4871535249       13.7395769168
  C        22.4373704538       22.2471693994       14.6986806105
  H        23.0926343788       21.5131741009       14.2046516627
  C        23.1759634888       23.5928166008       14.8405657575
  H        23.4655728844       23.9707933884       13.8484190204
  H        24.1011469513       23.4557762868       15.4211065580
  C        22.2574749210       24.6096799568       15.5478624619
  H        22.7853149984       25.5689278082       15.6630038032
  C        29.0893501342       19.7157865660       21.8298990530
  C        30.0815908057       19.8314781640       23.0034216615
  H        30.8416885631       20.5937761214       22.7748000920
  H        29.5471692087       20.1604682326       23.9073456186
  C        29.8606411492       19.2934913391       20.5613366992
  H        30.6171580008       20.0531650027       20.3152603934
  H        29.1642351728       19.2413913845       19.7098599734
  C        28.0176394770       18.6659600740       22.1592285579
  H        27.2944686956       18.6081912007       21.3305278588
  H        27.4581827991       18.9807080766       23.0540386196
  C        30.7537097329       18.4605654998       23.2451128509
  H        31.4533111229       18.5543462583       24.0897277829
  C        31.5193024188       18.0310820776       21.9778338206
  H        32.3083722500       18.7620056417       21.7449709061
  H        32.0156525311       17.0631739313       22.1450159554
  C        30.5322953527       17.9212388043       20.7983992415
  H        31.0731284949       17.6286654824       19.8855920365
  C        29.4542422716       16.8690756663       21.1272094121
  H        28.7559518155       16.7641826352       20.2822593573
  H        29.9238745319       15.8856523015       21.2803534520
  C        28.6906866186       17.2966669179       22.3969092119
  H        27.9113456542       16.5558468104       22.6328190995
  C        29.6744855793       17.4115731029       23.5781900231
  H        30.1446735350       16.4367563010       23.7771014626
  H        29.1299077267       17.7054967393       24.4894779292
  C        17.0346932843       26.1118838465       19.2336968432
  C        17.8806902975       26.5432806909       18.0265682362
  H        18.6620066848       27.2430468102       18.3612230035
  H        18.3958054030       25.6624875099       17.6114622316
  C        16.3390141769       27.3455547407       19.8430145498
  H        15.7460458096       27.0442608589       20.7194664848
  H        17.1009038852       28.0583316277       20.1949530681
  C        15.9662437180       25.0976443045       18.7746388240
  H        16.4631399739       24.2056812100       18.3628666620
  H        15.3689429051       24.7676320539       19.6379182729
  C        16.9748124145       27.2006791686       16.9624674320
  H        17.5946391630       27.5053707846       16.1054765646
  C        16.2824305013       28.4367806627       17.5712982125
  H        15.6466680985       28.9239397593       16.8166876077
  H        17.0351798421       29.1763715135       17.8846721966
  C        15.4294450750       28.0028387039       18.7799575200
  H        14.9406046448       28.8821268910       19.2256240443
  C        14.3624477239       26.9891510712       18.3203266602
  H        13.6969243761       27.4530870718       17.5767415738
  H        13.7335099747       26.6888988526       19.1720228492
  C        15.0562857324       25.7542585423       17.7112955661
  H        14.2997426572       25.0223357377       17.3910084527
  C        15.9086547145       26.1864341006       16.5015263715
  H        16.3928199023       25.3087280446       16.0471220385
  H        15.2667427849       26.6366699114       15.7293964223
  S        20.6567340413       21.9923499329       18.4526002610
  S        28.3712951030       21.4138198028       21.5223167322
  S        18.0385925655       25.2920265357       20.5811767361
