 430
 i =      246, E =     -2250.1662694205
 Au        21.1231926363       18.9335903334       20.2895335830
 Au        18.9499994436       20.4508484293       18.9499999065
 Au        18.9500003930       17.3830577155       18.9500006015
 Au        21.5841447361       15.9878898563       20.5510061444
 Au        21.5111689126       17.2322261030       17.7714702860
 Au        21.6574503206       20.7328007311       18.2220390258
 Au        20.6076934442       21.7591836145       20.7017252095
 Au        18.9499990402       24.0412943730       18.9499988965
 Au        17.7119937782       22.3053557653       21.7137400285
 Au        18.3204170125       18.8338840116       21.4049977259
 Au        18.6860773143       16.0316903508       21.4041448099
 Au        18.9500009890       14.1485768037       18.9500008231
 Au        21.2618245658       14.7724275810       23.5379636767
 Au        21.1788922157       17.6422065416       22.7805135760
 Au        23.5696316797       17.7946523643       21.2163071268
 Au        24.8938094160       16.0720308298       18.9599757900
 Au        24.7814334330       20.0547320393       19.2455042672
 Au        24.6943785797       15.1695404784       22.3928235840
 Au        21.3990693100       20.7266253096       23.7238187766
  S        17.1456673812       24.2141480424       20.4428489478
  S        17.9856228152       20.4742557817       23.1684378986
  S        20.6720609892       18.8011667155       24.8751858449
  S        22.0351512303       22.6042644705       22.4544695035
  S        19.1040350379       14.1156752494       22.8350507000
  S        23.4188155620       15.3026690478       24.3695058443
  S        21.2964313119       13.9606503324       19.2068716404
  S        26.1203616953       14.8347617402       20.5486990133
  S        23.8466825783       17.1958465100       17.1795364482
  S        23.8862003275       20.9673577482       17.2654027162
  S        25.6396207340       19.0600165866       21.1971577677
  C        17.5058417368       25.6993605982       21.5041715911
  H        18.5475965835       25.6191255883       21.8371542632
  C        17.3219793660       26.9708283677       20.6641010060
  H        18.0293021987       26.9610218183       19.8211274027
  H        16.3114241747       26.9637927611       20.2267701737
  C        17.5088212992       28.2363682818       21.5217928193
  H        17.3367189210       29.1295801143       20.9033951039
  H        18.5534710017       28.2942936223       21.8627112027
  C        16.5729591742       28.2349057911       22.7403675186
  H        16.7523288765       29.1252122737       23.3611015426
  H        15.5294650547       28.3010930067       22.3980542642
  C        16.7535340693       26.9574842386       23.5746711052
  H        16.0451338259       26.9409672618       24.4159359741
  H        17.7597467177       26.9508829493       24.0209931611
  C        16.5673535753       25.6908827091       22.7186629045
  H        16.7461943208       24.7837363918       23.3156379798
  H        15.5264460158       25.6347396609       22.3628968076
  C        16.2483605499       20.2097633565       23.7861356008
  H        15.5909496058       20.1965598798       22.9068890929
  C        15.8575528706       21.3736313679       24.7080743242
  H        16.5959628193       21.4519626901       25.5204116754
  H        15.9044224531       22.3183789429       24.1449160991
  C        14.4507534099       21.1602613670       25.2973923521
  H        14.2023461422       21.9910568348       25.9741069060
  H        13.7100449666       21.1883911566       24.4839218557
  C        14.3499078861       19.8149150031       26.0322328121
  H        13.3290622527       19.6619458925       26.4126862738
  H        15.0105120801       19.8292362480       26.9119757747
  C        14.7545039975       18.6558328946       25.1088184320
  H        14.0244291923       18.5746463059       24.2890198293
  H        14.7219125425       17.6991711539       25.6518253044
  C        16.1604104484       18.8641667511       24.5147213836
  H        16.9156939411       18.8329338753       25.3149097016
  H        16.4089568948       18.0551120047       23.8114034813
  C        21.9724543442       18.3717637708       26.1329995583
  H        22.8833267042       18.0926880334       25.5890844159
  C        22.2492059413       19.5756262174       27.0439559395
  H        21.3009240418       19.9060623757       27.4943480025
  H        22.6179288332       20.4168897083       26.4380481232
  C        23.2552240237       19.2124239991       28.1517590681
  H        24.2308664140       18.9873454306       27.6948196355
  H        23.4153138134       20.0817882899       28.8064498526
  C        22.7829947075       18.0003428532       28.9696817373
  H        21.8725769692       18.2696341362       29.5256678115
  H        23.5371539346       17.7294401013       29.7234976205
  C        22.4837175414       16.8018088457       28.0561716775
  H        22.0970397367       15.9556960513       28.6434932384
  H        23.4181279272       16.4544043351       27.5890938278
  C        21.4769545068       17.1705055363       26.9507370131
  H        21.3074799235       16.3125837595       26.2828737093
  H        20.5053692371       17.4244331177       27.4014407811
  C        21.3048719923       24.0956306700       23.2867757054
  H        20.2175289913       23.9459094336       23.3314354241
  C        21.6383171424       25.3293269733       22.4344930711
  H        22.7258108500       25.3549218034       22.2641672603
  H        21.1692739357       25.2331228245       21.4427709447
  C        21.1976932617       26.6331958782       23.1258205176
  H        20.0987931518       26.6636569641       23.1848068547
  H        21.4952141166       27.4949962672       22.5100357579
  C        21.7770071115       26.7523804157       24.5432267695
  H        22.8717842253       26.8439472257       24.4845150861
  H        21.4145958726       27.6711324607       25.0278758481
  C        21.4136698441       25.5210562033       25.3867483367
  H        21.8596556565       25.5926848483       26.3896905874
  H        20.3239433747       25.4884299375       25.5362398974
  C        21.8759916841       24.2198462253       24.7064755268
  H        21.5807239422       23.3380597959       25.2948312351
  H        22.9754510170       24.2046723101       24.6483457724
  C        18.0274784809       14.2075833368       24.3381068216
  H        17.0156545420       14.0945950675       23.9190485455
  C        18.1182131719       15.5286453416       25.1008986740
  H        17.8914527370       16.3663440538       24.4263544826
  H        19.1617266498       15.6710416524       25.4231923191
  C        17.1859215369       15.5263502040       26.3248773229
  H        17.2943766964       16.4752084483       26.8711322876
  H        16.1379851334       15.4834801510       25.9888124958
  C        17.4735940904       14.3327924336       27.2494653604
  H        18.4785079271       14.4454902555       27.6831766836
  H        16.7699067908       14.3228848788       28.0949799409
  C        17.3993522745       13.0054198186       26.4786175817
  H        16.3638497247       12.8326594133       26.1480883995
  H        17.6567306233       12.1612111380       27.1352806821
  C        18.3311860335       13.0099992331       25.2515586047
  H        18.2379060760       12.0704542422       24.6887832846
  H        19.3813008231       13.0816573943       25.5767804186
  C        23.9531525811       13.8620761831       25.4124971911
  H        23.2508524430       13.8972635549       26.2595819303
  C        23.8434967860       12.5039196101       24.7173999592
  H        22.8076217829       12.3468641247       24.3797824207
  H        24.4691389319       12.5312635991       23.8105758706
  C        24.3039517094       11.3652532991       25.6451742719
  H        24.2486696387       10.4068540014       25.1079912186
  H        23.6100547712       11.2814684176       26.4951654543
  C        25.7278504783       11.6081893155       26.1703384832
  H        26.0215458326       10.8079370261       26.8656615129
  H        26.4367293845       11.5654996932       25.3303343497
  C        25.8379585658       12.9780994143       26.8577401250
  H        26.8714705138       13.1648188531       27.1848697692
  H        25.2218358266       12.9803675074       27.7693751204
  C        25.3773425351       14.1160103197       25.9271605913
  H        26.0508804927       14.1869612984       25.0579305883
  H        25.4265704630       15.0852429893       26.4443079274
  C        21.5936014277       12.4829675041       20.3046031177
  H        21.2936555620       12.7640045081       21.3236192624
  C        20.7645705283       11.2822098793       19.8335875812
  H        20.9688703604       11.1015326640       18.7670849276
  H        19.6947886831       11.5256062078       19.9143455488
  C        21.0987475690       10.0194046502       20.6491191285
  H        20.7884893720       10.1710808259       21.6937965399
  H        20.5088248272        9.1710652649       20.2716581776
  C        22.6005682882        9.7002387064       20.6034012935
  H        22.8871513829        9.4412316947       19.5731880836
  H        22.8240823369        8.8160622278       21.2187765790
  C        23.4271598724       10.9047041097       21.0767690457
  H        24.5040861833       10.6941917830       21.0004014550
  H        23.2232480950       11.0894748693       22.1418708815
  C        23.0967844815       12.1745879120       20.2709223187
  H        23.4096202720       12.0417491126       19.2241518300
  H        23.6611271164       13.0337460542       20.6657300145
  C        27.6373794758       15.8481660270       20.9086786393
  H        27.2924822402       16.8555817919       21.1732696890
  C        28.5153750178       15.9170813370       19.6522238680
  H        28.7603344191       14.8949267454       19.3261640548
  H        27.9491879752       16.3867185108       18.8338332778
  C        29.8104364738       16.7003601705       19.9381943792
  H        29.5561470235       17.7481589612       20.1561521558
  H        30.4397757457       16.7163992151       19.0362775901
  C        30.5822364639       16.1024328800       21.1247741221
  H        31.4799737148       16.7016782179       21.3379389895
  H        30.9379305250       15.0960506682       20.8583796287
  C        29.6921848746       16.0124569788       22.3742651174
  H        29.4341954667       17.0270738117       22.7124248550
  H        30.2369352336       15.5391675070       23.2044181526
  C        28.3963786160       15.2293803308       22.0899059861
  H        28.6370985666       14.1815723080       21.8546816925
  H        27.7468382763       15.2146385602       22.9783132967
  C        24.0419204764       16.0453937751       15.7367603581
  H        23.4055442916       16.5022744974       14.9634898045
  C        23.5715598923       14.6130696530       16.0006164996
  H        24.1321663170       14.2197203218       16.8648304714
  H        22.5122925921       14.6155496154       16.2986270118
  C        23.8037428439       13.7151357725       14.7717284646
  H        23.1626135954       14.0535073846       13.9420883832
  H        23.4890465838       12.6866970181       15.0028727168
  C        25.2701012561       13.7448951864       14.3137967066
  H        25.9040591466       13.2995353092       15.0947975928
  H        25.4041416562       13.1263297009       13.4139891282
  C        25.7308022697       15.1858185306       14.0462884121
  H        25.1741306337       15.5947147310       13.1891704328
  H        26.7931047770       15.2070555569       13.7613443525
  C        25.5076367553       16.0846648901       15.2765739591
  H        26.1394405208       15.7394788837       16.1107801794
  H        25.8071796611       17.1207014643       15.0632294188
  C        24.3127329476       22.7716271079       17.3029613865
  H        23.5631840930       23.2262080805       16.6367115284
  C        25.7143614284       22.9586937509       16.7006127790
  H        25.7589847253       22.5070271051       15.6990700584
  H        26.4381204849       22.4122465991       17.3248435998
  C        26.0936411906       24.4508260911       16.6416327433
  H        25.4253528350       24.9686985630       15.9368738979
  H        27.1106745586       24.5591047275       16.2364356845
  C        25.9886634111       25.1140327027       18.0239661451
  H        26.2241321036       26.1863327400       17.9522494189
  H        26.7433575193       24.6753475463       18.6936484904
  C        24.5919423362       24.9091108637       18.6312085302
  H        23.8449325936       25.4523500094       18.0313206770
  H        24.5425717139       25.3379189442       19.6433418261
  C        24.2085191103       23.4202658225       18.6852389688
  H        24.8824810275       22.8796482662       19.3706970252
  H        23.1912391082       23.2912506661       19.0826790940
  C        25.4635399273       20.3433408115       22.5298481535
  H        24.4425935969       20.7403136106       22.4680074582
  C        26.4757811160       21.4730458597       22.2948176149
  H        26.2824195380       21.9426870580       21.3189160135
  H        27.4880322942       21.0437019563       22.2440421690
  C        26.4043599626       22.5156996313       23.4264999047
  H        25.4211318627       23.0091387224       23.3963927691
  H        27.1544840035       23.3016051614       23.2546126143
  C        26.6077833965       21.8653174866       24.8036886268
  H        27.6327955181       21.4710911823       24.8732877989
  H        26.5110645281       22.6181523206       25.6001730136
  C        25.6049854296       20.7229212004       25.0256448111
  H        24.5844729506       21.1350839802       25.0667104648
  H        25.7828056461       20.2339643592       25.9951741113
  C        25.6729179524       19.6783803269       23.8964124843
  H        26.6539242511       19.1784955811       23.9069632184
  H        24.9144079623       18.8952310100       24.0439503134
 Au        16.7768073985       18.9335885001       17.6104662604
 Au        16.3158552976       15.9878905352       17.3489923951
 Au        16.3888313171       17.2322253967       20.1285303517
 Au        16.2425475895       20.7328005199       19.6779594743
 Au        17.2923045862       21.7591825138       17.1982735912
 Au        20.1880050017       22.3053560366       16.1862592098
 Au        19.5795845885       18.8338851240       16.4950018483
 Au        19.2139230625       16.0316908214       16.4958534434
 Au        16.6381727427       14.7724281574       14.3620356039
 Au        16.7211065010       17.6422074018       15.1194850416
 Au        14.3303675295       17.7946523054       16.6836918760
 Au        13.0061883499       16.0720302966       18.9400216695
 Au        13.1185647557       20.0547324226       18.6544943946
 Au        13.2056193712       15.1695375111       15.5071769111
 Au        16.5009309678       20.7266257769       14.1761791675
  S        20.7543328950       24.2141479052       17.4571498950
  S        19.9143795335       20.4742561924       14.7315591851
  S        17.2279365903       18.8011666872       13.0248119512
  S        15.8648476106       22.6042633507       15.4455288353
  S        18.7959619119       14.1156740878       15.0649478366
  S        14.4811806543       15.3026718931       13.5304998681
  S        16.6035748956       13.9606490728       18.6931234688
  S        11.7796450645       14.8347578474       17.3512991902
  S        14.0533166499       17.1958436244       20.7204594310
  S        14.0137974991       20.9673572162       20.6345968445
  S        12.2603785751       19.0600146949       16.7028412170
  C        20.3941531724       25.6993652330       16.3958358332
  H        19.3524024646       25.6191239202       16.0628412651
  C        20.5780261107       26.9708338989       17.2359018529
  H        19.8706967255       26.9610188320       18.0788708065
  H        21.5885807560       26.9637903497       17.6732318928
  C        20.3911742305       28.2363688811       16.3782055430
  H        20.5632819668       29.1295775380       16.9966065990
  H        19.3465250553       28.2942943812       16.0372877025
  C        21.3270403478       28.2349071081       15.1596336597
  H        21.1476715126       29.1252141784       14.5389004029
  H        22.3705350534       28.3010916636       15.5019452380
  C        21.1464706254       26.9574828905       14.3253325141
  H        21.8548642197       26.9409696080       13.4840626686
  H        20.1402575394       26.9508835114       13.8790089767
  C        21.3326392028       25.6908802681       15.1813431204
  H        21.1538092440       24.7837366914       14.5843602579
  H        22.3735504516       25.6347423344       15.5371001348
  C        21.6516413255       20.2097596638       14.1138614919
  H        22.3090498342       20.1965624248       14.9931099117
  C        22.0424408386       21.3736359844       13.1919302457
  H        21.3040376554       21.4519653492       12.3795857142
  H        21.9955756030       22.3183854310       13.7550846601
  C        23.4492356206       21.1602612199       12.6026033379
  H        23.6976518659       21.9910575043       11.9258949547
  H        24.1899495005       21.1883913058       13.4160702023
  C        23.5500951583       19.8149134685       11.8677632048
  H        24.5709376037       19.6619467731       11.4873047513
  H        22.8894842519       19.8292406341       10.9880253327
  C        23.1454870670       18.6558369397       12.7911782165
  H        23.8755687782       18.5746455106       13.6109707541
  H        23.1780815431       17.6991754037       12.2481697696
  C        21.7395791026       18.8641638809       13.3852747819
  H        20.9843000722       18.8329376824       12.5850835260
  H        21.4910411093       18.0551112260       14.0885973603
  C        15.9275447079       18.3717632389       11.7669967130
  H        15.0166734148       18.0926883532       12.3109144703
  C        15.6507915003       19.5756286500       10.8560446341
  H        16.5990735683       19.9060627541       10.4056509648
  H        15.2820686521       20.4168916841       11.4619525700
  C        14.6447751803       19.2124234869        9.7482408495
  H        13.6691318506       18.9873469127       10.2051793147
  H        14.4846839418       20.0817880445        9.0935503600
  C        15.1170022904       18.0003437593        8.9303148110
  H        16.0274211656       18.2696357805        8.3743313360
  H        14.3628420747       17.7294405419        8.1765003777
  C        15.4162802198       16.8018116235        9.8438269706
  H        15.8029576984       15.9556981941        9.2565058627
  H        14.4818708366       16.4544046403       10.3109051002
  C        16.4230451959       17.1705037361       10.9492614929
  H        16.5925201115       16.3125829870       11.6171255533
  H        17.3946290209       17.4244351686       10.4985567435
  C        16.5951278548       24.0956314794       14.6132271020
  H        17.6824710289       23.9459099548       14.5685632094
  C        16.2616811386       25.3293298396       15.4655057309
  H        15.1741877900       25.3549206215       15.6358327623
  H        16.7307251091       25.2331219918       16.4572275355
  C        16.7023085265       26.6331983005       14.7741796454
  H        17.8012085294       26.6636575474       14.7151942875
  H        16.4047832086       27.4949959611       15.3899653150
  C        16.1229921768       26.7523801543       13.3567738769
  H        15.0282153947       26.8439477452       13.4154833498
  H        16.4854041266       27.6711322687       12.8721252666
  C        16.4863293806       25.5210569947       12.5132502878
  H        16.0403447101       25.5926856169       11.5103078737
  H        17.5760560056       25.4884301540       12.3637602811
  C        16.0240111140       24.2198472570       13.1935263558
  H        16.3192753224       23.3380607569       12.6051683045
  H        14.9245515787       24.2046729528       13.2516529238
  C        19.8725191276       14.2075916017       13.5618914764
  H        20.8843431967       14.0945905669       13.9809496663
  C        19.7817842949       15.5286498698       12.7990941363
  H        20.0085461206       16.3663423545       13.4736468894
  H        18.7382686117       15.6710391110       12.4768068194
  C        20.7140805201       15.5263479374       11.5751199806
  H        20.6056181201       16.4752072751       11.0288681897
  H        21.7620156936       15.4834815589       11.9111869427
  C        20.4264046737       14.3327915607       10.6505302910
  H        19.4214898304       14.4454875935       10.2168215185
  H        21.1300937049       14.3228855703        9.8050175718
  C        20.5006424559       13.0054204107       11.4213811549
  H        21.5361455825       12.8326593118       11.7519104973
  H        20.2432716415       12.1612104781       10.7647172571
  C        19.5688171115       13.0100014733       12.6484474131
  H        19.6620912963       12.0704501609       13.2112143059
  H        18.5187037782       13.0816558139       12.3232179203
  C        13.9468527297       13.8620787423       12.4875048851
  H        14.6491469772       13.8972643218       11.6404151874
  C        14.0564963730       12.5039189426       13.1825961759
  H        15.0923730236       12.3468665462       13.5202128532
  H        13.4308628302       12.5312629321       14.0894263898
  C        13.5960506127       11.3652464476       12.2548252134
  H        13.6513306278       10.4068506272       12.7920132396
  H        14.2899458330       11.2814673684       11.4048322202
  C        12.1721530715       11.6081925296       11.7296624872
  H        11.8784552560       10.8079372970       11.0343429600
  H        11.4632709550       11.5654966696       12.5696631742
  C        12.0620354944       12.9781001455       11.0422563708
  H        11.0285235506       13.1648155630       10.7151272760
  H        12.6781637867       12.9803639779       10.1306253364
  C        12.5226615101       14.1160040579       11.9728401389
  H        11.8491171934       14.1869621788       12.8420642879
  H        12.4734269102       15.0852363566       11.4556910640
  C        16.3063638937       12.4829787816       17.5953908873
  H        16.6063584144       12.7639991389       16.5763885849
  C        17.1354253866       11.2822294421       18.0663888181
  H        16.9311351817       11.1015286006       19.1328943304
  H        18.2052122053       11.5255959107       17.9856630926
  C        16.8012400206       10.0194016533       17.2508947480
  H        17.1115081998       10.1710823907       16.2062199518
  H        17.3911765132        9.1710589164       17.6283327931
  C        15.2994161841        9.7002468776       17.2966056089
  H        15.0128518566        9.4412265586       18.3268222684
  H        15.0759179217        8.8160693614       16.6812225464
  C        14.4728452152       10.9047040765       16.8231982327
  H        13.3959160595       10.6941950951       16.8996067208
  H        14.6767585075       11.0894743622       15.7581009343
  C        14.8031854760       12.1745688081       17.6290900184
  H        14.4903788224       12.0417586069       18.6758704708
  H        14.2388874162       13.0337424852       17.2342609202
  C        10.2626227338       15.8481576766       16.9913292818
  H        10.6075107756       16.8555728413       16.7267278958
  C         9.3846163642       15.9170979814       18.2477723803
  H         9.1396712374       14.8949373250       18.5738302188
  H         9.9508186182       16.3867202844       19.0661636452
  C         8.0895502658       16.7003676973       17.9617987722
  H         8.3438615663       17.7481601341       17.7438581390
  H         7.4602288535       16.7164020301       18.8637272518
  C         7.3177545271       16.1024259118       16.7752247212
  H         6.4200261042       16.7016866795       16.5620643378
  H         6.9620717610       15.0960492224       17.0416312090
  C         8.2078120784       16.0124627929       15.5257273369
  H         8.4658083463       17.0270703217       15.1875775749
  H         7.6630612311       15.5391722463       14.6955777001
  C         9.5036165012       15.2293871489       15.8100916855
  H         9.2629020788       14.1815739179       16.0453148434
  H        10.1531567986       15.2146302830       14.9216901039
  C        13.8580774457       16.0453938353       22.1632379498
  H        14.4944551794       16.5022741296       22.9365079055
  C        14.3284391292       14.6130704127       21.8993802883
  H        13.7678327990       14.2197196537       21.0351669333
  H        15.3877067065       14.6155495455       21.6013708598
  C        14.0962558456       13.7151348645       23.1282669903
  H        14.7373840900       14.0535054926       23.9579084056
  H        14.4109522509       12.6866958544       22.8971240897
  C        12.6298980896       13.7448932699       23.5862004525
  H        11.9959401176       13.2995339625       22.8051992198
  H        12.4958565442       13.1263272680       24.4860074700
  C        12.1691961876       15.1858163088       23.8537086758
  H        12.7258677887       15.5947117594       24.7108270891
  H        11.1068938576       15.2070531288       24.1386528316
  C        12.3923609795       16.0846642302       22.6234241289
  H        11.7605579013       15.7394789464       21.7892171859
  H        12.0928188581       17.1207005730       22.8367702335
  C        13.5872683244       22.7716272944       20.5970354291
  H        14.3368147862       23.2262075114       21.2632881296
  C        12.1856396942       22.9586915556       21.1993847988
  H        12.1410133997       22.5070276558       22.2009286350
  H        11.4618772917       22.4122467130       20.5751553761
  C        11.8063579060       24.4508231785       21.2583690446
  H        12.4746461443       24.9686989975       21.9631259524
  H        10.7893239086       24.5591057282       21.6635633534
  C        11.9113339588       25.1140322943       19.8760365484
  H        11.6758676850       26.1863332132       19.9477494273
  H        11.1566417472       24.6753487594       19.2063510719
  C        13.3080544606       24.9091129387       19.2687912507
  H        14.0550667803       25.4523496473       19.8686783020
  H        13.3574276282       25.3379188025       18.2566572574
  C        13.6914787057       23.4202683240       19.2147584430
  H        13.0175174800       22.8796480574       18.5293019927
  H        14.7087590620       23.2912499895       18.8173204930
  C        12.4364578862       20.3433444694       15.3701557161
  H        13.4574058173       20.7403133165       15.4319894809
  C        11.4242147559       21.4730495675       15.6051779527
  H        11.6175804379       21.9426859903       16.5810810133
  H        10.4119660806       21.0437013748       15.6559567353
  C        11.4956419020       22.5157057429       14.4734982515
  H        12.4788714493       23.0091409243       14.5036066210
  H        10.7455145348       23.3016076761       14.6453876241
  C        11.2922173663       21.8653182070       13.0963122821
  H        10.2672047360       21.4710941310       13.0267091416
  H        11.3889360463       22.6181539227       12.2998283289
  C        12.2950137010       20.7229214033       12.8743517624
  H        13.3155260362       21.1350854054       12.8332900126
  H        12.1171943900       20.2339669349       11.9048215879
  C        12.2270833212       19.6783860861       14.0035892745
  H        11.2460777945       19.1784984520       13.9930333108
  H        12.9855887255       18.8952335752       13.8560464145

