612
Energy =  -2992.6645253824
 Au        21.7848846732       24.5404695658       25.1045272853
 Au        23.7116788630       22.4276669870       26.2735796007
 Au        23.1454076288       22.4394207104       23.3199194866
 Au        24.7337745702       24.7806868028       24.5696041428
 Au        20.0213661034       22.3676958090       24.0543489945
 Au        23.3944512431       26.5784917323       26.2959089674
 Au        22.8265618534       26.6056262364       23.4605180743
 Au        21.2845907889       24.2492023300       22.1289919924
 Au        22.5265629902       24.3261522485       28.2422422212
 Au        27.4624414629       25.1949217471       24.0562617983
 Au        26.1140720462       22.9840276578       22.8655256027
 Au        20.7208130708       22.4922090049       26.7741276091
 Au        25.2504938688       24.4375652548       27.5356101541
 Au        24.9950301115       20.6283822460       24.4669814803
 Au        23.9896593539       24.5422556900       21.4365997918
 Au        22.1902992253       20.3805044930       25.0555216987
 Au        22.5739637435       22.2361360264       20.5794522281
 Au        19.0336031287       24.4892510136       25.6549225379
 Au        24.2502067579       22.2206375487       29.0181728866
 Au        21.2451535951       19.9413910175       21.8806718216
 Au        22.5215472322       19.8222533281       28.0937663734
 Au        26.0073327153       20.2622614717       27.6599516823
 Au        26.8477897503       22.8874091825       25.5726460879
 Au        26.3980249094       27.3618193627       26.0103563230
 Au        19.6917818784       26.8374306188       23.7918596541
 Au        20.2225170569       26.6827335153       27.2688945806
 Au        21.7149233862       27.3417142522       19.9456479900
 Au        24.0455053124       27.2642940515       30.0944699572
 Au        25.9461665741       27.1925470197       22.5367827472
 Au        28.8137353228       20.2360156636       23.8047437749
 Au        30.2975592741       23.4651245710       23.6497700851
 Au        24.7305778625       20.1492937398       21.4009888920
 Au        24.5680925806       24.1551856109       31.7650371871
 Au        18.5381696495       19.3822460804       25.7906303404
 Au        21.4055176859       24.1443951409       18.2272847934
 Au        16.5556489067       22.3985106095       26.1478236617
  S        22.8014971055       28.3869933123       21.7392334528
  S        20.0339812749       28.3425915795       25.5908767541
  S        23.1998969381       28.2219507091       28.1230212667
  S        20.5543309076       18.5449983812       24.9277926157
  S        26.8075035187       26.2515096202       28.0542819189
  S        16.6236322317       24.7492923340       26.0323954567
  S        24.5054325165       26.4579080856       32.2613355613
  S        25.9184434905       28.8485527772       24.2292904023
  S        20.3947131865       25.1708608175       29.0770705142
  S        26.6877767133       21.4238246874       21.0693299772
  S        26.9123958083       19.0908722636       24.5655699213
  S        29.8340294254       25.7674110797       23.8296944057
  S        30.9246320567       21.2061741410       23.4171419072
  S        27.7216662327       21.8874327908       27.6183271905
  S        24.6133999310       21.8285417574       31.4062387562
  S        24.4385955758       18.4904966147       27.6829489446
  S        20.3715064968       20.7352052069       28.4483293828
  S        16.3327908150       20.0579133885       26.2737775570
  S        22.1206684105       21.9014341221       18.1819244547
  S        25.9833641392       25.7157282736       20.6917425378
  S        23.1030078321       18.4762896655       21.8018997257
  S        19.2909006057       21.2663641046       22.0027885874
  S        19.3977611015       25.7535532469       21.7171369790
  S        20.4814320876       26.3009702512       18.2278483928
  C        26.2172742819       26.8160416573       32.6827035298
  C        26.5420339957       26.8607254849       34.0444489112
  H        25.7712644325       26.6747102712       34.7894960292
  C        27.8529120921       27.1377120999       34.4491655171
  H        28.0685256370       27.1613004316       35.5139087740
  C        28.8740124304       27.3794310759       33.5177173878
  C        28.5215960615       27.3394076194       32.1555194134
  H        29.2782559706       27.5141227365       31.3924993881
  C        27.2195066882       27.0662167689       31.7368429866
  H        26.9776902570       27.0352996928       30.6753807523
  C        20.2883032338       27.5280218311       30.5908912205
  H        19.9907651252       28.0314478757       29.6716276612
  C        20.6019313367       26.1604834486       30.5523179024
  C        20.9804114949       25.5217236755       31.7412156057
  H        21.2218835869       24.4600087072       31.7354038989
  C        21.0605739781       26.2484131776       32.9331425855
  H        21.3809588311       25.7248844254       33.8297757933
  C        20.7652561863       27.6187276284       32.9899003114
  C        20.3709602859       28.2355569773       31.7889878357
  H        20.1354001223       29.2985122250       31.7787013504
  C        15.9817882240       19.7975112951       28.0158051872
  C        16.8919499591       19.2274409149       28.9095031676
  H        17.9001090303       18.9941702867       28.5713521769
  C        16.5183169838       18.9805711405       30.2362218044
  H        17.2581951044       18.5444108901       30.9018071657
  C        15.2374007343       19.2921742277       30.7133092186
  C        14.3361485656       19.8684924923       29.7973403427
  H        13.3304160897       20.1310248868       30.1204623556
  C        14.6911644968       20.1161617625       28.4726759595
  H        13.9710899591       20.5603993207       27.7884037963
  C        20.2486335340       21.2795258737       30.1441205588
  C        19.1611287072       22.0785541071       30.5265010792
  H        18.4913936211       22.4836214255       29.7705591742
  C        18.9298306289       22.3513835987       31.8797212708
  H        18.0791270419       22.9785726696       32.1336363272
  C        19.7610269439       21.8448161001       32.8917536472
  C        20.8637262875       21.0716363843       32.4831370259
  H        21.5540619574       20.6730614544       33.2242899120
  C        21.1095720325       20.7916415633       31.1401990803
  H        21.9725502101       20.1913143222       30.8565654516
  C        16.3879135096       25.3268833248       27.7092065887
  C        16.4729503819       26.7062793724       27.9436377940
  H        16.7288754198       27.3826842711       27.1308577292
  C        16.2318573602       27.2226884864       29.2207531940
  H        16.3148226448       28.2974496862       29.3566527174
  C        15.8961059960       26.3951297147       30.3025394023
  C        15.8080705974       25.0142741439       30.0448943770
  H        15.5436781627       24.3286319217       30.8483594439
  C        16.0493675656       24.4820343825       28.7786125907
  H        15.9702901467       23.4080567499       28.6100533565
  C        24.7792712331       17.5464588019       29.1671397992
  C        23.8329229238       17.3587807689       30.1799914211
  H        22.8623571464       17.8475494677       30.1002110368
  C        24.1304550270       16.5550420760       31.2872825365
  H        23.3726638958       16.4450222192       32.0586597383
  C        25.3676295125       15.9073207357       31.4197469330
  C        26.2990492543       16.0926081067       30.3795793660
  H        27.2699701490       15.6026050451       30.4307047565
  C        26.0190544828       16.8925497285       29.2731167890
  H        26.7624632989       17.0182654154       28.4878589413
  C        21.0681271695       17.1489353548       25.9125014542
  C        20.4689612876       16.7894805915       27.1255134143
  H        19.6816759199       17.4181478886       27.5383736992
  C        20.8703598976       15.6287319594       27.7964290865
  H        20.3766016571       15.3816468773       28.7324407874
  C        21.8788153276       14.7946162991       27.2916145397
  C        22.4752934413       15.1798485606       26.0754923911
  H        23.2624821045       14.5639909161       25.6432557461
  C        22.0857195585       16.3298803322       25.3920130207
  H        22.5651647333       16.5969298873       24.4515083191
  C        26.6655541037       17.6624075732       23.5254006276
  C        25.8343142304       16.6414190170       24.0188617898
  H        25.3266600397       16.7737567306       24.9730370848
  C        25.6696747735       15.4628641169       23.2938534525
  H        25.0265300629       14.6873945966       23.7070052388
  C        26.3154302730       15.2479146932       22.0611430805
  C        27.1311151495       16.2837171700       21.5816912382
  H        27.6507853495       16.1736710165       20.6336513600
  C        27.3057685410       17.4754284623       22.2944569886
  H        27.9492711206       18.2611729943       21.9014282747
  C        22.9439204919       17.4979246554       20.3097889837
  C        21.8701609877       16.5957773805       20.2148054628
  H        21.1301115460       16.5537019165       21.0120794811
  C        21.7499277133       15.7621513524       19.1040833447
  H        20.9056935290       15.0758573326       19.0619088838
  C        22.6828291106       15.7871662370       18.0491640771
  C        23.7546495904       16.6840672869       18.1700551121
  H        24.5056324333       16.7442872161       17.3866383910
  C        23.8917295500       17.5248232916       19.2811152736
  H        24.7359651592       18.2102972052       19.3514585997
  C        20.6136638765       20.9533339415       17.9804563714
  C        20.6621070110       19.5670912514       18.1785868300
  H        21.5856112293       19.0936028754       18.5046591551
  C        19.5236078780       18.7820486862       17.9648985040
  H        19.6072408789       17.7129586097       18.1390636031
  C        18.3063945982       19.3397590538       17.5465366969
  C        18.2820811965       20.7313179298       17.3396807352
  H        17.3645745044       21.2132065670       17.0062839944
  C        19.4061817583       21.5280965124       17.5510670345
  H        19.3565979216       22.6033526112       17.3820924362
  C        17.9330710514       20.1367627496       22.2855300184
  C        18.0289256230       18.7691039352       22.0007507405
  H        18.9888062149       18.3552310490       21.6935903556
  C        16.9084708591       17.9400955221       22.1131889240
  H        17.0276357183       16.8831477116       21.8894315115
  C        15.6594449355       18.4393293123       22.5097455037
  C        15.5851107178       19.8158419782       22.7939137398
  H        14.6412200797       20.2470157743       23.1227622822
  C        16.6902225167       20.6585268492       22.6827693580
  H        16.5924774499       21.7193572813       22.9086906506
  C        17.7926416734       24.9801994822       21.6357103543
  C        17.5393163673       24.0604378327       20.6076177236
  H        18.3563523303       23.7102457564       19.9790988040
  C        16.2385270912       23.5988247119       20.3817755800
  H        16.0841349687       22.8841128772       19.5777443566
  C        15.1530383648       24.0325535219       21.1597594411
  C        15.4353295915       24.9318106877       22.2050513471
  H        14.6335443606       25.2852709218       22.8505827521
  C        16.7263318355       25.4000661019       22.4459002416
  H        16.9123930826       26.0975202213       23.2608582313
  C        18.4835433585       29.1828788761       25.9056728079
  C        17.4337947876       29.2108503692       24.9814759218
  H        17.5276256880       28.6515455656       24.0510412040
  C        16.2714673953       29.9434049759       25.2517384193
  H        15.4737046307       29.9289977335       24.5136478512
  C        16.1175777359       30.6740827342       26.4393089549
  C        17.1923847478       30.6466102042       27.3492210311
  H        17.1246590927       31.2046606611       28.2816231859
  C        18.3544252925       29.9200324294       27.0956346272
  H        19.1661942973       29.9171655977       27.8209927826
  C        21.7512004878       29.7330117842       22.2698672105
  C        20.4348957080       29.9171337222       21.8292652389
  H        19.9861203345       29.1792626478       21.1655222197
  C        19.7047822678       31.0412504780       22.2310905160
  H        18.6873763814       31.1490027681       21.8647604116
  C        20.2520759666       32.0126708230       23.0823445134
  C        21.5732651684       31.8034106036       23.5210370463
  H        22.0416614763       32.5314191787       24.1815183092
  C        22.3161328434       30.6905205603       23.1302506635
  H        23.3361447729       30.5599672149       23.4880260777
  C        24.1397185284       29.6980562424       27.7737064928
  C        23.6032975016       30.6009281729       26.8390127767
  H        22.6795948323       30.3549867630       26.3175669742
  C        24.2505104639       31.8080322927       26.5837744613
  H        23.8064015085       32.4885968034       25.8591438386
  C        25.4441915428       32.1701574148       27.2367158314
  C        25.9657679192       31.2523331965       28.1606163508
  H        26.8854724290       31.4779996757       28.6938541016
  C        25.3321749693       30.0330060228       28.4270713068
  H        25.7582029638       29.3396059096       29.1508703194
  C        27.3714492267       29.8619088325       23.9620377808
  C        27.4864506818       30.5691823060       22.7571479753
  H        26.7368405020       30.4338079374       21.9791655161
  C        28.5644612040       31.4346409116       22.5456413087
  H        28.6183635865       31.9643648019       21.5980267665
  C        29.5618196085       31.6243969649       23.5156443816
  C        29.4208578720       30.9136307381       24.7219375174
  H        30.1670532484       31.0281472845       25.5065039171
  C        28.3470730761       30.0524293734       24.9516509466
  H        28.2576213182       29.5205098698       25.8983412074
  C        30.1479902654       26.4349555597       22.1989506964
  C        29.9912884367       27.8159716746       22.0121304963
  H        29.6065239147       28.4356319578       22.8196827906
  C        30.3366633337       28.4087214676       20.7923150972
  H        30.2009710725       29.4827931062       20.6956265554
  C        30.8482969899       27.6589508246       19.7217692985
  C        30.9836095703       26.2729804667       19.9242255063
  H        31.3743487755       25.6432304461       19.1266029383
  C        30.6411641762       25.6658483346       21.1316989939
  H        30.7701183265       24.5910702613       21.2598992770
  C        25.7634327912       26.8284023598       19.3047628037
  C        26.7020832031       27.8571237858       19.1363148885
  H        27.4907440649       27.9945865170       19.8747429603
  C        26.6308367923       28.6999374155       18.0247824497
  H        27.3727757188       29.4888599983       17.9313216981
  C        25.6325482672       28.5524910454       17.0486438938
  C        24.7081659242       27.5079139849       17.2325487525
  H        23.9060683694       27.3579549885       16.5116545925
  C        24.7695625824       26.6502099530       18.3341297860
  H        24.0405578163       25.8481768356       18.4440594065
  C        20.8024792314       27.0654079337       16.6394923470
  C        21.2892514118       26.3480620666       15.5412423496
  H        21.6050274799       25.3138498237       15.6769929983
  C        21.3556182233       26.9472753583       14.2770383096
  H        21.7330381497       26.3532544238       13.4488149234
  C        20.9408131373       28.2700346335       14.0632192021
  C        20.4758237258       28.9814399388       15.1863102790
  H        20.1504283045       30.0141855822       15.0743391045
  C        20.4040896409       28.3998961693       16.4512728561
  H        20.0302068565       28.9750907664       17.2961161815
  C        26.6706293196       22.1585563578       19.4437010184
  C        27.6216352099       23.1443128064       19.1430823034
  H        28.2748593618       23.5261466505       19.9248231897
  C        27.7304644690       23.6437750171       17.8406518305
  H        28.4716386284       24.4158371523       17.6515348044
  C        26.9073729071       23.1841227939       16.8010417919
  C        25.9545030773       22.2004790230       17.1269418898
  H        25.2819159851       21.8189798559       16.3608372071
  C        25.8315088179       21.6933780937       18.4195072402
  H        25.0792005284       20.9384675872       18.6420112332
  C        31.3197550817       21.1190387873       21.6639191684
  C        32.6593542803       21.3076227143       21.2994420060
  H        33.4050698435       21.5052482539       22.0666450742
  C        33.0396582721       21.2501959438       19.9537749034
  H        34.0868304957       21.4052710713       19.7084055660
  C        32.1063832240       21.0018398629       18.9354824742
  C        30.7694316937       20.8031134173       19.3270777571
  H        30.0055542795       20.6130825541       18.5750858229
  C        30.3750534690       20.8560583714       20.6639944378
  H        29.3301554149       20.7110516654       20.9346437650
  C        28.5345565436       25.8090036338       28.1369235872
  C        28.9635720186       24.8955888712       29.1110958878
  H        28.2334994418       24.3477737846       29.7034408441
  C        30.3310084409       24.6878031821       29.3273428976
  H        30.6217395649       23.9672039254       30.0874856205
  C        31.3110306876       25.3725572809       28.5911451366
  C        30.8577042116       26.2620573035       27.5990492559
  H        31.5746553906       26.8014689783       26.9828568211
  C        29.5006663090       26.4804941190       27.3703413101
  H        29.1816572845       27.1736036490       26.5935983553
  C        26.3186582436       21.3306914192       31.6199987856
  C        26.6326565090       19.9772671393       31.4334363666
  H        25.8619503803       19.2770297224       31.1179202678
  C        27.9358652034       19.5178460386       31.6482259272
  H        28.1339341316       18.4619419838       31.4861064142
  C        28.9658350115       20.3777677582       32.0578920880
  C        28.6285528195       21.7309485415       32.2468718004
  H        29.3892955641       22.4392768074       32.5709965707
  C        27.3352714379       22.2070404500       32.0323392355
  H        27.1040601672       23.2604911776       32.1898232928
  C        29.2547324541       21.0041690811       27.3537808839
  C        29.3764110348       19.6299414468       27.5935110460
  H        28.4871782519       19.0539328465       27.8474053029
  C        30.6221065640       19.0007662915       27.5057580640
  H        30.6711004357       17.9312963121       27.6932652841
  C        31.7853841138       19.7122247844       27.1779392195
  C        31.6412214941       21.0912843757       26.9362796393
  H        32.5124886095       21.6835744207       26.6618843765
  C        30.4081072945       21.7361356452       27.0238936541
  H        30.3371923074       22.8058295177       26.8328780699
  C        30.3268219997       27.6660800651       33.9245257363
  C        31.2410462789       26.5554602462       33.3511210256
  H        30.9660452878       25.5729774077       33.7587545413
  H        31.1686700330       26.4957566318       32.2567619366
  H        32.2906596214       26.7508852799       33.6111827040
  C        30.7645066147       29.0354732425       33.3508336685
  H        31.8066058597       29.2490911059       33.6260957330
  H        30.6965251119       29.0589775201       32.2554171639
  H        30.1348292805       29.8453066845       33.7435123749
  C        30.5111327268       27.7029682485       35.4536822308
  H        30.2517967575       26.7431263075       35.9211144371
  H        31.5616674793       27.9135428635       35.6942869177
  H        29.9008855865       28.4886658278       35.9199448458
  C        20.8800093228       28.4456171107       34.2783799107
  C        21.3289219986       27.5930645256       35.4807806325
  H        21.3983704749       28.2253787461       36.3758014961
  H        20.6166284737       26.7857581296       35.7002911431
  H        22.3178662082       27.1445105957       35.3129599747
  C        21.9231123295       29.5703449007       34.0670776118
  H        22.0236594933       30.1741021783       34.9795506442
  H        22.9075143238       29.1488684020       33.8210674800
  H        21.6351613155       30.2439161851       33.2494946926
  C        19.5062073244       29.0751423468       34.6135777817
  H        19.5765182235       29.6818689967       35.5270383438
  H        19.1496302244       29.7279033984       33.8059723759
  H        18.7460204441       28.2986219698       34.7761077635
  C        14.8017003107       19.0448584194       32.1647767667
  C        14.4444334648       20.3985691585       32.8261385031
  H        15.3145119628       21.0699367024       32.8370231016
  H        13.6326717283       20.9096223735       32.2919984016
  H        14.1179676345       20.2442328954       33.8639585796
  C        13.5580071136       18.1232989712       32.1826340255
  H        12.7142890471       18.5642470796       31.6360000196
  H        13.7829406755       17.1510888098       31.7235449170
  H        13.2296497342       17.9453140838       33.2160157299
  C        15.9089761101       18.3748608955       33.0002054948
  H        16.8139615906       18.9961852944       33.0534151812
  H        15.5531733913       18.2172187483       34.0269474279
  H        16.1899623508       17.3941097500       32.5925389781
  C        19.5018899214       22.0760587668       34.3883244543
  C        18.3210800632       23.0339062548       34.6358822583
  H        18.4950365872       24.0204677751       34.1841727564
  H        17.3784763227       22.6339121865       34.2370131819
  H        18.1836055212       23.1796796955       35.7155706920
  C        19.1781736130       20.7163366237       35.0559552525
  H        19.0023767003       20.8498973577       36.1325370618
  H        18.2769414850       20.2659258450       34.6171456715
  H        20.0030656314       20.0018604497       34.9353396990
  C        20.7602270654       22.6761729389       35.0596323595
  H        21.0180093177       23.6470797282       34.6154651731
  H        20.5810951758       22.8284550772       36.1328371118
  H        21.6349790972       22.0212660491       34.9578617181
  C        15.6273059153       26.9332412662       31.7152376098
  C        15.8136060292       28.4603779490       31.8036124153
  H        16.8411874390       28.7573143552       31.5517721878
  H        15.1235281511       28.9969320864       31.1377856364
  H        15.6127259699       28.7976519124       32.8291687624
  C        14.1725570030       26.5952055547       32.1232514473
  H        13.9652237299       26.9585038942       33.1394437058
  H        13.4523517025       27.0642608220       31.4391750330
  H        13.9892704492       25.5127111479       32.1106046658
  C        16.6068653144       26.2701607711       32.7137071578
  H        17.6510065601       26.4833957446       32.4448550569
  H        16.4282601225       26.6490571337       33.7297916871
  H        16.4806996945       25.1798796813       32.7407574266
  C        25.7283546773       15.0285508504       32.6261376217
  C        26.0269531399       13.5890418465       32.1408994847
  H        25.1489913918       13.1500667569       31.6473645492
  H        26.8596190178       13.5647193910       31.4258042968
  H        26.2976106815       12.9483865465       32.9915748010
  C        26.9853814373       15.6050189466       33.3226986367
  H        27.2558726523       14.9886468105       34.1911555891
  H        27.8512331049       15.6263784677       32.6476801775
  H        26.8070007685       16.6310176634       33.6725743227
  C        24.5901008092       14.9638535050       33.6622680982
  H        23.6738291153       14.5310994774       33.2376715749
  H        24.8945229203       14.3292566307       34.5050866537
  H        24.3480434113       15.9564547031       34.0662717786
  C        22.3271691830       13.5037819644       27.9920885883
  C        23.8516560993       13.5539161727       28.2534215575
  H        24.1814171146       12.6307736749       28.7501858309
  H        24.4233089080       13.6492004159       27.3211520354
  H        24.1161109271       14.4042161427       28.8969641379
  C        21.6159492530       13.2959674792       29.3431480381
  H        21.9734014844       12.3679967414       29.8090556925
  H        21.8227605197       14.1198753295       30.0402943795
  H        20.5273304947       13.2066190317       29.2257466665
  C        22.0035604704       12.2952647360       27.0794440285
  H        22.3281787944       11.3586525519       27.5538578758
  H        20.9245059012       12.2249092995       26.8863052419
  H        22.5123669925       12.3738559320       26.1096230773
  C        26.1289433270       13.9168461822       21.3186087067
  C        26.7216390085       12.7735569539       22.1788990884
  H        27.7957384703       12.9260908665       22.3511509214
  H        26.2314932004       12.7106289266       23.1594454491
  H        26.5898094576       11.8060916341       21.6745908510
  C        24.6220478321       13.6535673548       21.0858435154
  H        24.4813717220       12.7002881325       20.5574598096
  H        24.0665021965       13.5915123858       22.0305440350
  H        24.1688378228       14.4518105569       20.4822372900
  C        26.8339013253       13.9094268732       19.9484211317
  H        27.9199767816       14.0442879345       20.0434587176
  H        26.6651828580       12.9442796323       19.4524147783
  H        26.4434670843       14.6967761276       19.2886341606
  C        22.5001938999       14.8589582434       16.8395880633
  C        21.1395778750       15.1590321010       16.1642083448
  H        20.2988575185       14.9903657304       16.8502338912
  H        21.0903358698       16.2018731226       15.8222693174
  H        20.9942769128       14.5052081588       15.2931857671
  C        23.6113559710       15.0440090553       15.7886366588
  H        23.4370427445       14.3638246022       14.9444276141
  H        23.6310623213       16.0675909154       15.3899728999
  H        24.6046493478       14.8138176085       16.1979565109
  C        22.5210105350       13.3857713235       17.3149670572
  H        21.7235821438       13.1805357280       18.0411052816
  H        22.3791354178       12.7080482086       16.4618092056
  H        23.4795426030       13.1396480503       17.7921588760
  C        17.0383103986       18.5069487856       17.3102755532
  C        15.8922307042       19.0478984564       18.1996928464
  H        16.1579234652       18.9919464478       19.2646303395
  H        15.6550059507       20.0942370378       17.9666181672
  H        14.9782796897       18.4586550055       18.0403709374
  C        16.6266719276       18.6152597889       15.8217362258
  H        15.7093786107       18.0396424069       15.6348823482
  H        16.4345267876       19.6560570072       15.5295684180
  H        17.4155301901       18.2237207557       15.1651853382
  C        17.2463785638       17.0181995838       17.6491318794
  H        17.5199045602       16.8779555563       18.7041473936
  H        16.3144597773       16.4654919584       17.4705336384
  H        18.0265656432       16.5606450438       17.0249626339
  C        14.4098996338       17.5574290207       22.6466829407
  C        13.2968951370       18.0951885215       21.7142402173
  H        12.3917437392       17.4790601567       21.8065940066
  H        13.0229385539       19.1295345844       21.9604344919
  H        13.6189213761       18.0749001708       20.6638295999
  C        14.6868860392       16.0897045832       22.2682244474
  H        13.7659683288       15.5012462129       22.3752812788
  H        15.0231520731       15.9918028852       21.2267161033
  H        15.4460185476       15.6360554094       22.9201074586
  C        13.9132004166       17.5956377645       24.1121104586
  H        13.0101014497       16.9800233208       24.2242823834
  H        14.6803719508       17.2107869872       24.7975962480
  H        13.6685770595       18.6164677796       24.4330890102
  C        13.7042387904       23.6019853015       20.8856117669
  C        12.9117286169       24.8333804850       20.3795865145
  H        12.9155485145       25.6445112237       21.1197437778
  H        13.3466172436       25.2259039482       19.4504179882
  H        11.8656051340       24.5619538148       20.1802555592
  C        13.6169242451       22.4922765503       19.8198014127
  H        12.5681835035       22.2002079308       19.6760937152
  H        13.9986274445       22.8287733850       18.8463146126
  H        14.1772529228       21.5952278438       20.1189700166
  C        13.0441206622       23.0776283129       22.1826789364
  H        13.0218664904       23.8384074063       22.9732895533
  H        12.0066050987       22.7762113459       21.9834569402
  H        13.5843102555       22.2051328056       22.5745704251
  C        14.8535263937       31.4808819524       26.7688808269
  C        14.2435710915       30.9618949060       28.0941164580
  H        13.3363329167       31.5292843500       28.3436431496
  H        13.9729555150       29.9001308744       28.0145576393
  H        14.9430392566       31.0680329251       28.9338894376
  C        15.2278539214       32.9747496088       26.9280133001
  H        14.3362742774       33.5673381230       27.1755893595
  H        15.9636138408       33.1268686225       27.7285522725
  H        15.6570147671       33.3738900948       25.9986443383
  C        13.7826122328       31.3644086820       25.6675105690
  H        12.8987600697       31.9519851821       25.9490617437
  H        14.1420683623       31.7509301602       24.7039371549
  H        13.4567073859       30.3252511764       25.5224994083
  C        19.4845837050       33.2662175299       23.5269012238
  C        20.2185974372       34.5238434295       23.0001504776
  H        21.2473524379       34.5814235407       23.3794922618
  H        20.2667415017       34.5209687375       21.9027352126
  H        19.6927658359       35.4352195211       23.3171754485
  C        18.0402228983       33.2871732417       22.9905077278
  H        17.5317308152       34.1963176468       23.3383585834
  H        18.0099782477       33.2931664982       21.8923753549
  H        17.4626991293       32.4237192838       23.3494348134
  C        19.4242526036       33.3179159733       25.0726215843
  H        20.4262299511       33.3494311012       25.5201762084
  H        18.8860616610       34.2178759363       25.4013664446
  H        18.9027434980       32.4392962880       25.4767529809
  C        26.0999359485       33.5268191087       26.9402004733
  C        26.3656691713       33.6612780419       25.4212803365
  H        27.0387709043       32.8698482773       25.0638926748
  H        25.4384878207       33.6019130899       24.8367295453
  H        26.8309405555       34.6328859439       25.2040854385
  C        25.1433620717       34.6574832561       27.3931718722
  H        25.5846195918       35.6413661986       27.1811022248
  H        24.1784599295       34.6029072634       26.8719234162
  H        24.9445284594       34.5968870931       28.4717939768
  C        27.4407749188       33.7003428845       27.6792391011
  H        28.1664606375       32.9285266530       27.3873868437
  H        27.8759496463       34.6771814574       27.4296826543
  H        27.3167700780       33.6641948594       28.7701439888
  C        30.7674016703       32.5522955312       23.3064656286
  C        32.0727498007       31.7275016294       23.4195880471
  H        32.9475748019       32.3765766914       23.2758998260
  H        32.1687380027       31.2504735558       24.4036889048
  H        32.1057564909       30.9339758072       22.6601953054
  C        30.7462709049       33.2369645296       21.9263897860
  H        31.6238465902       33.8892581162       21.8254575408
  H        30.7823556470       32.5070491548       21.1054475297
  H        29.8528185123       33.8621043510       21.7922156135
  C        30.7617142995       33.6543789697       24.3938246800
  H        31.6234497314       34.3234920809       24.2633276416
  H        29.8465132470       34.2594459050       24.3363739093
  H        30.8186714059       33.2297315763       25.4046261878
  C        31.2775128257       28.2855026593       18.3869689298
  C        30.9783385042       29.7959412660       18.3271678952
  H        29.9054969116       30.0043597624       18.4437526367
  H        31.5225778278       30.3527988395       19.1024842397
  H        31.2905546626       30.1967434089       17.3536692382
  C        32.8024735381       28.0854376667       18.2044841986
  H        33.3631251764       28.5731139392       19.0134697754
  H        33.0723295727       27.0211433510       18.2058203280
  H        33.1348914869       28.5160685264       17.2496596150
  C        30.5311489454       27.5976318391       17.2185372827
  H        29.4430519704       27.7113628277       17.3212026449
  H        30.8348577342       28.0408029427       16.2600420823
  H        30.7520856751       26.5232634379       17.1699040285
  C        25.5094848748       29.4956591884       15.8432263952
  C        26.6984624870       30.4714479300       15.7406037376
  H        26.7589165053       31.1387117374       16.6111488724
  H        27.6564937813       29.9413983510       15.6457874936
  H        26.5791385756       31.1048877280       14.8515320242
  C        25.4506922773       28.6729935282       14.5338529033
  H        25.3723391194       29.3450736760       13.6677373911
  H        26.3564004617       28.0635116152       14.4098351416
  H        24.5840445528       27.9994749947       14.5117446408
  C        24.2097698392       30.3234752558       15.9915176453
  H        24.2291202683       30.9173567524       16.9153213200
  H        24.0956894493       31.0138684038       15.1440075304
  H        23.3211439836       29.6791897839       16.0245870561
  C        20.9494723193       28.9365603758       12.6793754374
  C        21.5342076251       28.0156270330       11.5913705673
  H        21.5252876332       28.5355149285       10.6242099232
  H        22.5747214330       27.7367771163       11.8081899937
  H        20.9474680483       27.0941356863       11.4753581455
  C        19.4946479771       29.2927089653       12.2853134590
  H        19.4732710143       29.7770187277       11.2991782431
  H        18.8682194189       28.3917113294       12.2376352041
  H        19.0361342516       29.9810928449       13.0073430362
  C        21.7959641757       30.2310392206       12.7223223379
  H        21.7851183212       30.7241939021       11.7405715824
  H        21.4113202438       30.9479276633       13.4592852221
  H        22.8398588942       30.0100213236       12.9833681741
  C        27.0157364021       23.6976705240       15.3578677071
  C        25.6441775971       24.2461499276       14.8952598175
  H        24.8613721921       23.4776357238       14.9342700247
  H        25.3258961807       25.0853007243       15.5289397632
  H        25.7095532887       24.6038349845       13.8583834059
  C        28.0558459919       24.8255674987       15.2160332983
  H        28.0890808038       25.1667642786       14.1727579060
  H        27.8035415566       25.6918911720       15.8435866516
  H        29.0665879010       24.4875645847       15.4835154222
  C        27.4351844127       22.5262137822       14.4358753181
  H        26.7107687048       21.7020271221       14.4742907408
  H        27.5042970651       22.8650816295       13.3927265622
  H        28.4153576969       22.1255530678       14.7296128282
  C        32.4830924004       20.9533857762       17.4474769532
  C        32.0877640209       19.5774957325       16.8585202090
  H        32.6175994553       18.7635934223       17.3716971954
  H        31.0105708129       19.3882753179       16.9526310695
  H        32.3433439374       19.5316535250       15.7908596638
  C        31.7186164475       22.0700420670       16.6943476286
  H        31.9580385123       22.0414083706       15.6222515517
  H        30.6307772119       21.9629646909       16.8013914705
  H        31.9959315233       23.0614885622       17.0785732641
  C        33.9924479143       21.1599457628       17.2179349469
  H        34.5910389874       20.3822013704       17.7118741637
  H        34.2124307678       21.1139201717       16.1430567975
  H        34.3324986570       22.1389238103       17.5826081957
  C        32.8181973807       25.2045301395       28.8359072834
  C        33.5272109064       24.8134044120       27.5170772304
  H        33.1409501047       23.8605267602       27.1302799350
  H        33.3884457816       25.5695776507       26.7338073466
  H        34.6071471421       24.7020000086       27.6856483657
  C        33.3978876909       26.5505489065       29.3377982322
  H        34.4805266563       26.4629723099       29.5052123495
  H        33.2339801457       27.3564970394       28.6104268783
  H        32.9305229033       26.8527730846       30.2853395215
  C        33.1225970639       24.1205311359       29.8872560402
  H        32.7379161254       23.1371890792       29.5826162049
  H        34.2089046658       24.0283297658       30.0187189773
  H        32.6936546399       24.3693968599       30.8678243701
  C        30.4047326614       19.9016790112       32.3038620853
  C        30.7766402307       20.1443922697       33.7869891152
  H        30.6973701625       21.2060285630       34.0556879594
  H        30.1136068223       19.5798945771       34.4566101787
  H        31.8102940068       19.8254626856       33.9804728431
  C        30.5840972596       18.4020012740       31.9977093860
  H        31.6256971690       18.1093985364       32.1858459225
  H        29.9448828869       17.7740593242       32.6338001268
  H        30.3589613723       18.1741860857       30.9465127631
  C        31.3733177634       20.6970666356       31.3955242719
  H        31.3367866238       21.7735120285       31.6085442642
  H        32.4079272323       20.3637715993       31.5582880119
  H        31.1279863532       20.5540471304       30.3337647209
  C        33.1682762550       19.0530557049       27.0715824640
  C        33.7142849658       19.2330828214       25.6344845330
  H        33.0494574754       18.7603093842       24.8989870182
  H        33.8041188756       20.2929788556       25.3631573972
  H        34.7092477890       18.7756490990       25.5453481573
  C        34.1365075526       19.7262324425       28.0749558763
  H        35.1343446195       19.2712087755       28.0059965896
  H        34.2452706214       20.8008518276       27.8776649634
  H        33.7779026886       19.6098801754       29.1070675763
  C        33.1216552621       17.5452402957       27.3852410446
  H        32.4745009927       17.0019612139       26.6830358218
  H        34.1303844786       17.1195149906       27.3013568243
  H        32.7640604541       17.3501031350       28.4057288659
