560
Energy =  -2804.6112034935
 Au        16.9670632445       18.6449802534       17.7038753500
 Au        17.0320271660       22.1566957272       17.8109758125
 Au        18.3579243037       18.2440060381       20.6866050734
 Au        19.6535937781       18.6314596551       16.6458572538
 Au        18.9537025318       20.3315668707       18.8623469159
 Au        18.8266511851       24.1631733509       18.4830692246
 Au        21.9467376395       23.9759353455       17.7667693046
 Au        18.4245309490       22.3163282411       20.8145992421
 Au        21.0317603652       22.0943893758       19.6519694732
 Au        22.3902987908       18.4507991704       22.4783571747
 Au        23.4868477091       18.7435332432       18.3165256405
 Au        15.7260440154       18.7270789511       21.6076430238
 Au        19.7228158213       22.1460572670       16.7630048311
 Au        16.3761439758       24.1243555986       20.1529552061
 Au        22.4492260965       21.8566727497       22.5911382439
 Au        20.9677784891       18.4525542573       19.5335335483
 Au        20.1685160079       15.7151880266       21.3568008357
 Au        16.0764742243       15.9899048633       16.5488496692
 Au        21.8158860388       16.6751602204       17.5198574956
 Au        18.6925029034       16.5399732223       18.2381762203
 Au        20.2001834721       20.2205779749       21.6621900015
 Au        19.2883067629       21.8640830966       23.9052539875
 Au        16.2484074605       16.5568198938       19.9162946174
 Au        23.5452363650       21.8008484612       18.4172069403
 Au        19.5279122481       24.9772614951       15.5375983123
 Au        23.1065682712       23.7980115145       20.3629133105
 Au        17.3691650149       23.9327186877       22.7991106560
 Au        19.3612179272       15.8610052191       15.2644384205
 Au        17.2398172664       16.5493831316       22.5695559128
 Au        19.3688512767       26.5167515871       24.3142688428
 Au        20.3251159230       24.7398082780       21.6449615515
 Au        16.2385319028       24.9044757421       16.8244531495
 Au        22.9809679037       16.6367485578       20.1251502463
 Au        22.7396797734       26.4803729174       22.8441214212
 Au        15.7746071009       21.8763070013       21.7106914091
 Au        19.2337664455       18.4722492411       23.8034876206
 Au        22.5080109389       13.8160340451       22.4351061273
 Au        19.1428122339       13.8141308287       23.9224232151
  S        15.0216278939       15.0881593758       18.4624350353
  S        15.3063444378       20.4359049474       17.6319558596
  S        21.4078356834       14.8990248129       15.9588143901
  S        19.8433367656       14.6309766847       19.2635606000
  S        15.2161140138       25.7294384916       18.7901237270
  S        17.5453064128       25.1342146915       24.8717826683
  S        24.4101404742       25.1014858430       21.9093464867
  S        21.5912710204       25.8428849749       16.3010112783
  S        17.3658300875       15.2190727742       24.5656110981
  S        17.1906858170       16.4631164938       14.4990210781
  S        17.3329188288       24.5028071189       14.7483709100
  S        20.0396792937       25.9648908681       19.6247745527
  S        20.9458268774       12.3581741464       23.4549334498
  S        13.9539620329       20.3295931453       21.6457841407
  S        21.2234458231       27.9349567486       23.9360357483
  S        17.7701218077       20.1691072651       24.6134041410
  S        24.2319874716       15.1719711316       21.5661298348
  S        24.0040899288       20.1434572211       22.0130939043
  S        24.8548689180       20.2878341478       17.1011937482
  S        20.8873635532       20.4045180184       15.5319939744
  S        20.8767154908       16.8514274923       23.3272448002
  S        20.9893540372       23.4525824977       23.5364196834
  C        25.3045153105       14.0831738005       20.5014411632
  C        26.3956561541       14.9783671370       19.8780454423
  C        25.9690920307       13.0351284092       21.4186571769
  C        24.5223502507       13.3712826237       19.3870685822
  C        25.4901801611       12.5004913664       18.5547557636
  C        26.5823955482       13.3925403377       17.9300724641
  C        27.3656173840       14.1064050583       19.0490263655
  C        28.0260161073       13.0562503409       19.9644749911
  C        26.9356719363       12.1615919524       20.5873141851
  C        26.1499504311       11.4481172280       19.4687636357
  C        21.9564491335       28.2613680596       25.6228075848
  C        22.2857464716       26.9701638230       26.3888935633
  C        23.2433993587       29.0879359411       25.4235053451
  C        20.9363829692       29.0944672411       26.4254826704
  C        21.5352651542       29.4506025684       27.8052865793
  C        21.8638906745       28.1546576692       28.5729498664
  C        22.8851107630       27.3261831286       27.7674855966
  C        24.1745807325       28.1483594938       27.5693673459
  C        23.8440279274       29.4443194660       26.8025817522
  C        22.8239446569       30.2737467324       27.6080664334
  C        19.1686172029       27.6146815130       19.7806100711
  C        20.2585663309       28.6362787229       20.1744027775
  C        18.6189134717       27.9842834310       18.3884495902
  C        18.0392727890       27.6371100456       20.8145993025
  C        17.4188564106       29.0524614643       20.8633338299
  C        18.5009252509       30.0716071084       21.2721226391
  C        19.6392159733       30.0516947898       20.2328312445
  C        19.0814134879       30.4221860754       18.8444982250
  C        18.0003875780       29.4000783932       18.4403105943
  C        16.8577820188       29.4209295021       19.4747943678
  C        25.5568517791       26.1968859200       20.9318384041
  C        26.6007198110       25.2847336169       20.2540712041
  C        24.8304810798       27.0307828016       19.8655466924
  C        26.2718682041       27.1361834856       21.9259010950
  C        27.2976683331       28.0069665866       21.1653121145
  C        28.3402482505       27.0954018290       20.4875322158
  C        27.6291616468       26.1537476034       19.4952932953
  C        26.9015138088       26.9902604887       18.4247483390
  C        25.8568524156       27.8991874519       19.1039143253
  C        26.5675792262       28.8430531892       20.0951584047
  C        22.8771515026       25.8556915488       14.9540135756
  C        24.1910384857       26.3307375003       15.6079377519
  C        23.0937278147       24.4839709217       14.3065083531
  C        22.4444304784       26.8730820118       13.8786916542
  C        23.5470920538       26.9792640361       12.7997596718
  C        24.8604508971       27.4530190600       13.4538803581
  C        25.2933040602       26.4379894467       14.5304326979
  C        25.5112351486       25.0565883201       13.8820128146
  C        24.1963236117       24.5853378955       13.2296175050
  C        23.7655350950       25.5982911326       12.1498271539
  C        16.6990531819       15.0624599910       13.3551434257
  C        15.2151373064       15.2548401044       12.9832797967
  C        17.5629554483       15.1760496499       12.0823713070
  C        16.8943352950       13.6742179894       13.9853460403
  C        16.4711079688       12.5823346384       12.9782798233
  C        14.9859493269       12.7723069591       12.6099880698
  C        14.7901612791       14.1629975801       11.9746322249
  C        15.6545325724       14.2764210606       10.7030099041
  C        17.1389554107       14.0846589971       11.0727700766
  C        17.3363468991       12.6933796980       11.7068280192
  C        20.3952372521       20.4790340487       13.7334110585
  C        20.9715410524       19.2260849043       13.0491556145
  C        18.8804898591       20.5345704855       13.5011621806
  C        21.0515593298       21.7359718040       13.1327897065
  C        20.7729412245       21.7964355534       11.6146279527
  C        21.3541209343       20.5414042637       10.9335559520
  C        20.6917538662       19.2840738326       11.5311210216
  C        19.1696341056       19.3400383894       11.2967859839
  C        18.5955142081       20.5956024132       11.9821520334
  C        19.2510283097       21.8545392128       11.3813006808
  C        13.0756511187       20.2801855002       23.2905712281
  C        12.1858576207       19.0190618914       23.2982237370
  C        14.0209368187       20.2463971318       24.4974099787
  C        12.1817603574       21.5358831020       23.3700824691
  C        11.3516733644       21.4970238971       24.6735566326
  C        10.4642652288       20.2360417578       24.6798177148
  C        11.3552752203       18.9802149010       24.6012368456
  C        12.3070056704       18.9462949708       25.8133423291
  C        13.1940570418       20.2073624271       25.8016254090
  C        12.3038981831       21.4636413435       25.8854474927
  C        13.3859304031       25.3649699903       18.8606508279
  C        12.7217270157       25.9344531733       17.5914296095
  C        13.0688507425       23.8711004923       18.9940403080
  C        12.8488326044       26.1146068952       20.0993577198
  C        11.3177674364       25.9189832650       20.1916665429
  C        10.6528281647       26.4868317678       18.9219127528
  C        11.1906345269       25.7416042011       17.6836817334
  C        10.8711693935       24.2383353464       17.8063263989
  C        11.5387805783       23.6738442383       19.0767636722
  C        10.9958397965       24.4163687159       20.3143253305
  C        16.8915136249       25.9818478420       13.6855140255
  C        15.3972864451       25.8727480175       13.3210879594
  C        17.1522093907       27.3251195450       14.3855648364
  C        17.7377593188       25.8989281312       12.3987526324
  C        17.3523827981       27.0593862201       11.4526865831
  C        15.8577447204       26.9511659738       11.0903274995
  C        15.0108672737       27.0335835731       12.3759579229
  C        15.2724492017       28.3791533864       13.0809368354
  C        16.7676866263       28.4858573074       13.4418589774
  C        17.6162072960       28.4050343485       12.1568705917
  C        26.6051466378       20.2237317065       17.7386797800
  C        26.7023826630       20.1985078126       19.2695710740
  C        27.2605491499       18.9518005465       17.1590391013
  C        27.3378960058       21.4693741242       17.1954215944
  C        28.8246126201       21.4170472314       17.6161957153
  C        28.9198322859       21.3922677773       19.1546636839
  C        28.1869391346       20.1466343866       19.6923549065
  C        28.8424143762       18.8745326242       19.1181181570
  C        28.7471401995       18.9002693803       17.5796643760
  C        29.4780414263       20.1454108378       17.0384785808
  C        14.5253568554       20.4959461585       15.9332153099
  C        15.5469454863       20.4916269826       14.7900213257
  C        13.5981085437       19.2714275723       15.8006106141
  C        13.6672141116       21.7740938430       15.8534170917
  C        12.9286254801       21.8280717522       14.4973790413
  C        13.9605131291       21.8252853822       13.3534157530
  C        14.8062669532       20.5398345176       13.4339995069
  C        13.8889635514       19.3089454644       13.3009187077
  C        12.8576337663       19.3165468649       14.4452005224
  C        12.0070815576       20.5995690548       14.3663244438
  C        22.6651197889       14.9377525072       14.5851136776
  C        22.7450071389       16.2922843519       13.8738720655
  C        24.0330539449       14.6026095321       15.2129353578
  C        22.2869603170       13.8414921517       13.5671618970
  C        23.3611736020       13.7804934415       12.4564392438
  C        23.4417817941       15.1452241640       11.7434105355
  C        23.8192974760       16.2364212128       12.7659135429
  C        25.1883392886       15.9048433363       13.3927878782
  C        25.1070961229       14.5395297702       14.1039844097
  C        24.7293069898       13.4464476070       13.0844985519
  C        16.0272851891       26.1958590757       25.0714788903
  C        16.2194739962       27.0638651839       26.3325961519
  C        15.7601152795       27.1005265107       23.8603985754
  C        14.8286717819       25.2474044736       25.2826044865
  C        13.5513039422       26.0800441575       25.5336786706
  C        13.7438269019       26.9502252468       26.7919925283
  C        14.9419544964       27.8978418016       26.5821079497
  C        14.6746442117       28.8053854203       25.3647101523
  C        14.4827022233       27.9333602717       24.1072961319
  C        13.2828743169       26.9874740243       24.3166667118
  C        15.8158609470       14.1932191281       24.6933295997
  C        15.5311864981       13.3722556146       23.4279818775
  C        15.9744246006       13.2441001513       25.8995188582
  C        14.6438870577       15.1617006198       24.9558685209
  C        13.3413302116       14.3530863052       25.1490455278
  C        13.0553693523       13.5301359227       23.8772124128
  C        14.2285392008       12.5638716510       23.6164411507
  C        14.3858017311       11.6112929227       24.8190276037
  C        14.6713685274       12.4344427883       26.0910402266
  C        13.5001368752       13.4025436963       26.3527475333
  C        21.6752528122       11.9166126028       25.1166973307
  C        20.6334006444       11.0719408420       25.8782838521
  C        22.9354921828       11.0640783149       24.8637353586
  C        22.0472422415       13.1525241368       25.9514076770
  C        22.6418478657       12.7019316968       27.3041616625
  C        21.5996266338       11.8608311470       28.0686479420
  C        21.2276718915       10.6205209572       27.2319121056
  C        22.4894123520        9.7707775275       26.9805352311
  C        23.5310176356       10.6128456065       26.2169206672
  C        23.9046210409       11.8531786424       27.0528076054
  C        18.9178787569       13.0048895640       19.3196684685
  C        18.3515514259       12.7415598998       17.9101326858
  C        19.9753279427       11.9255734227       19.6423121722
  C        17.7919102673       12.9540746850       20.3565694734
  C        17.1260455705       11.5591690505       20.3198114347
  C        16.5482777573       11.2975388738       18.9140245276
  C        17.6872087981       11.3462751829       17.8764764314
  C        18.7354313286       10.2659520133       18.2096836256
  C        19.3103834358       10.5301737050       19.6152046271
  C        18.1758740781       10.4818494281       20.6576137227
  C        13.2084281757       15.5237074218       18.5632660757
  C        12.5232131862       15.0914367318       17.2519770365
  C        12.6383240396       14.6958121629       19.7357601931
  C        12.9536811263       17.0131470955       18.8227187019
  C        11.4329327318       17.2661184539       18.9246177104
  C        10.7437808462       16.8382469866       17.6129533347
  C        11.0013118056       15.3388410644       17.3634886152
  C        10.4312297143       14.5150628196       18.5357951505
  C        11.1167578475       14.9464789313       19.8475112866
  C        10.8577194503       16.4455089087       20.0964713477
  C        17.9479479378       20.1154034873       26.4759499704
  C        17.2456279353       21.3673890649       27.0422577508
  C        17.2226516856       18.8481034430       26.9747983642
  C        19.4099971356       20.0888797334       26.9501926242
  C        19.4522212812       20.0481965008       28.4940739440
  C        18.7518254298       21.2996159571       29.0609198576
  C        17.2850693006       21.3242435939       28.5869403202
  C        16.5604115210       20.0580940203       29.0858593079
  C        17.2627389376       18.8078461344       28.5196075417
  C        18.7292561386       18.7814720089       28.9942370884
  C        25.1903765124       20.0685248950       23.4583291004
  C        26.1028679204       21.3099939668       23.3737585491
  C        24.4869827324       20.0419371934       24.8252011556
  C        26.0410522629       18.7918144836       23.2920469163
  C        27.1002597558       18.7303481891       24.4162408290
  C        28.0127686382       19.9702273907       24.3326174261
  C        27.1624399495       21.2457446489       24.4977629591
  C        26.4558001207       21.2197353189       25.8677124475
  C        25.5440474269       19.9788947663       25.9500334114
  C        26.3930617055       18.7021851370       25.7857476954
  H        25.9202377646       15.7417211341       19.2420265666
  H        26.9411153333       15.5086795793       20.6728093700
  H        26.5114265977       13.5409581289       22.2309232537
  H        25.1878097691       12.4141684805       21.8842282526
  H        23.7297477571       12.7533165941       19.8371225665
  H        24.0222004095       14.1202953938       18.7530480784
  H        26.1258117283       14.1340261703       17.2575480552
  H        27.2667885782       12.7813441510       17.3223856743
  H        28.6055131555       13.5538042183       20.7567263687
  H        28.7326939623       12.4425720362       19.3855183256
  H        26.8266821494       10.8078788278       18.8828583641
  H        25.3820834323       10.7921822812       19.9057254402
  H        22.9920135341       26.3663128267       25.7978996697
  H        21.3691528095       26.3705213408       26.5028878988
  H        23.0156767810       30.0026678654       24.8566797961
  H        23.9620242451       28.5037658368       24.8275508704
  H        20.0075250162       28.5147844190       26.5445885647
  H        20.6821036126       30.0093046547       25.8702652466
  H        20.9469648314       27.5686298352       28.7360026687
  H        22.2724145117       28.3984075287       29.5653307403
  H        24.6221009543       28.3919502266       28.5448153351
  H        24.9168647814       27.5577088783       27.0117971329
  H        22.5971644227       31.2122924074       27.0800616730
  H        23.2491136186       30.5485839535       28.5852091341
  H        21.0751146265       28.6046426688       19.4385764203
  H        20.6888544651       28.3679638955       21.1504528503
  H        19.4291244183       27.9441822508       17.6450455893
  H        17.8615696889       27.2466432144       18.0803011379
  H        18.4375606501       27.3590796141       21.8046467664
  H        17.2773213787       26.8869648409       20.5545146671
  H        18.0659454081       31.0806211003       21.3350041766
  H        18.8982074097       29.8235356620       22.2683245873
  H        18.6528383035       31.4357348494       18.8670795621
  H        19.8924850234       30.4309038636       18.1006644158
  H        16.0732298280       28.7065465759       19.1838062330
  H        16.3977658159       30.4202031916       19.5072843214
  H        27.1055695040       24.6686528012       21.0130360702
  H        26.0886087885       24.5970860128       19.5625972971
  H        24.2944922897       26.3590859939       19.1766663409
  H        24.0705484443       27.6612657717       20.3529888746
  H        26.7743680057       26.5429521421       22.7039474703
  H        25.5239251404       27.7687197935       22.4290580827
  H        29.0880308260       27.7054173680       19.9584665653
  H        28.8810844877       26.5094297728       21.2459888054
  H        27.6272751970       27.6009747853       17.8664938772
  H        26.4096832967       26.3266017886       17.6977608813
  H        25.8350667239       29.5109735308       20.5726746069
  H        27.2870718605       29.4816707983       19.5606946164
  H        24.0371240609       27.3039894956       16.0974488845
  H        24.4836393282       25.6142446288       16.3906040721
  H        23.3651178447       23.7480370077       15.0797383859
  H        22.1494101125       24.1469717058       13.8588345977
  H        21.4939799020       26.5456940537       13.4297026319
  H        22.2657428080       27.8543868926       14.3419772622
  H        24.7220861404       28.4473286681       13.9045692027
  H        25.6468936483       27.5522812063       12.6905305287
  H        26.3087015780       25.1169047832       13.1260575629
  H        25.8378287777       24.3291536966       14.6405411045
  H        24.5360509969       25.6687648783       11.3672618547
  H        22.8397041345       25.2587790408       11.6609722239
  H        14.6007990907       15.1985839451       13.8956303455
  H        15.0641601377       16.2537418709       12.5476625928
  H        17.4456766634       16.1752926110       11.6366829675
  H        18.6245875543       15.0612855980       12.3525916036
  H        17.9498837361       13.5507018494       14.2755491563
  H        16.2972648415       13.6055530371       14.9087000846
  H        14.6666902782       11.9884974716       11.9066957293
  H        14.3584015436       12.6749903624       13.5086662726
  H        15.3476573519       13.5156302934        9.9694891815
  H        15.5053620581       15.2585546625       10.2295134845
  H        18.3968105377       12.5375088780       11.9562301495
  H        17.0551413189       11.9090208060       10.9880387557
  H        22.0527203341       19.1602681302       13.2381990663
  H        20.5058642939       18.3317923894       13.4908996990
  H        18.4089056886       19.6463578613       13.9476614023
  H        18.4636788156       21.4176559111       14.0086120570
  H        20.6396423971       22.6269095680       13.6320521892
  H        22.1340670818       21.7207929853       13.3254007035
  H        21.1766084903       20.5832591913        9.8482463542
  H        22.4441447520       20.5012676560       11.0805906188
  H        18.6913712112       18.4362284923       11.7047620781
  H        18.9534326588       19.3652368823       10.2180206207
  H        19.0348667596       21.9166056568       10.3040643867
  H        18.8320725768       22.7576779806       11.8512207110
  H        12.8241578878       18.1257730213       23.2197171123
  H        11.5217795367       19.0241583325       22.4210203721
  H        14.6767764477       21.1301545455       24.4752574669
  H        14.6791819548       19.3674794370       24.4234868863
  H        11.5171183666       21.5781354890       22.4943970957
  H        12.8160328571       22.4349960693       23.3423608979
  H         9.7670677967       20.2592743517       23.8286294471
  H         9.8538750456       20.2089103686       25.5951153883
  H        12.9339882686       18.0420532161       25.7768564729
  H        11.7266892288       18.9000159659       26.7472601750
  H        11.7239136871       21.4555682804       26.8205976101
  H        12.9293727166       22.3695126475       25.9004150975
  H        12.9682337244       27.0012809205       17.4855773563
  H        13.1255673755       25.4173662313       16.7071835349
  H        13.5571405222       23.4669869291       19.8949846308
  H        13.4892743324       23.3266389260       18.1389797408
  H        13.0933696277       27.1845888325       20.0275344235
  H        13.3419092028       25.7250050861       21.0029442020
  H         9.5601434699       26.3721917934       18.9851614601
  H        10.8588489599       27.5643547750       18.8349703018
  H        11.2331611400       23.7014591117       16.9159688681
  H         9.7819525130       24.0879488002       17.8525875785
  H        11.4488378917       24.0040622273       21.2287751443
  H         9.9081048366       24.2714283963       20.3975020930
  H        15.1992562151       24.9055625720       12.8355089459
  H        14.7943172549       25.9068292021       14.2420812700
  H        16.5669823443       27.3702550332       15.3178647939
  H        18.2147041547       27.3880247731       14.6698793093
  H        18.8059347517       25.9531917489       12.6618403302
  H        17.5721258040       24.9309680093       11.9024152779
  H        15.6620426107       26.0028477571       10.5674124964
  H        15.5772719158       27.7623588049       10.4016258562
  H        14.6579131376       28.4556383149       13.9905376034
  H        14.9809185315       29.2118955146       12.4232933559
  H        17.3641098949       29.2381709813       11.4836045412
  H        18.6845850379       28.5007031390       12.4027709988
  H        26.1528349339       19.3272807878       19.6583484685
  H        26.2073890842       21.0905159547       19.6839915613
  H        27.1723354250       18.9520413073       16.0624472121
  H        26.7226163206       18.0658902704       17.5294771164
  H        27.2512017966       21.5059194600       16.0993729438
  H        26.8556607831       22.3759145229       17.5915182896
  H        28.4722322051       22.3055278966       19.5762946232
  H        29.9748720895       21.3753408849       19.4670093634
  H        29.8962999131       18.8178624361       19.4297267450
  H        28.3393146316       17.9785887992       19.5134275380
  H        30.5421327853       20.1085562217       17.3169378285
  H        29.4335354601       20.1627896701       15.9389896052
  H        16.2168562244       21.3579268150       14.8958398222
  H        16.1687088090       19.5863995407       14.8593028563
  H        14.1952834752       18.3481546066       15.8793338643
  H        12.8726342762       19.2687408883       16.6270691656
  H        12.9400138781       21.7799718409       16.6783105590
  H        14.3133200858       22.6591745830       15.9734634177
  H        13.4476628347       21.8825008348       12.3814514365
  H        14.6130967813       22.7081495665       13.4323643671
  H        14.4900459260       18.3877917083       13.3414748182
  H        13.3745568295       19.3221905158       12.3281752975
  H        11.4624722882       20.6347792838       13.4105990437
  H        11.2523788562       20.6045787340       15.1675739591
  H        21.7612578905       16.5279924650       13.4436732303
  H        22.9748711599       17.0809435584       14.6068596205
  H        24.2877420997       15.3747377229       15.9553397346
  H        23.9762153280       13.6423108326       15.7470922686
  H        22.2063316484       12.8696130615       14.0759244961
  H        21.2991914031       14.0677792070       13.1368265132
  H        22.4753552952       15.3848234203       11.2744238332
  H        24.1897907830       15.1052540908       10.9372571701
  H        25.4748906293       16.6887834219       14.1102980545
  H        25.9648167139       15.8784163632       12.6136282118
  H        25.4980115733       13.3801434676       12.2997685754
  H        24.6893879172       12.4644044733       13.5795374665
  H        17.0905438481       27.7222440889       26.1911959075
  H        16.4332340959       26.4209557183       27.1990522599
  H        16.6283229826       27.7586160347       23.7027737463
  H        15.6567804217       26.4805392393       22.9559984432
  H        15.0259633842       24.5815113103       26.1359580871
  H        14.7085157706       24.6101554398       24.3922866574
  H        13.9155005582       26.3117399444       27.6716635689
  H        12.8319436313       27.5335396153       26.9905595447
  H        13.7775911402       29.4178782260       25.5414931746
  H        15.5157926693       29.4994947008       25.2182586574
  H        13.1223175267       26.3750625465       23.4160060257
  H        12.3643573834       27.5718943716       24.4778246994
  H        15.4528854558       14.0488112525       22.5623583791
  H        16.3812451918       12.6997999812       23.2356099490
  H        16.2012248467       13.8256287192       26.8051469320
  H        16.8267186958       12.5701468388       25.7216712915
  H        14.5485630367       15.8550771379       24.1053238973
  H        14.8544102286       15.7685959899       25.8491616476
  H        12.1191286584       12.9643459885       23.9971272053
  H        12.9192675699       14.2011369181       23.0150805278
  H        15.2070104235       10.9024122138       24.6347697888
  H        13.4697455183       11.0163515592       24.9532056418
  H        12.5702773263       12.8356447936       26.5111961430
  H        13.6848208269       13.9811059988       27.2705061050
  H        20.3473815727       10.1982196647       25.2743793144
  H        19.7238899224       11.6727504280       26.0359615094
  H        23.6687738072       11.6593778185       24.2973395497
  H        22.6776058534       10.1901880942       24.2475933641
  H        21.1500610911       13.7725010841       26.1045057459
  H        22.7689507893       13.7669327608       25.3906346462
  H        22.0054684045       11.5493833591       29.0430538476
  H        20.7018183700       12.4641216337       28.2704987658
  H        22.9099850773        9.4280377678       27.9380108287
  H        22.2312979745        8.8710638757       26.4016789537
  H        24.6624943694       12.4509144919       26.5244890082
  H        24.3484566828       11.5417919403       28.0104864680
  H        17.6178305565       13.5213522023       17.6529462557
  H        19.1602972357       12.8019568965       17.1664743288
  H        20.4182252948       12.1179535298       20.6307137177
  H        20.7895144528       11.9772301968       18.9049470288
  H        17.0535812866       13.7430433463       20.1479821580
  H        18.2021292867       13.1566134954       21.3599386868
  H        16.0554376787       10.3139153194       18.8860396952
  H        15.7866989897       12.0542678951       18.6731526088
  H        19.5429521669       10.2772957764       17.4620509311
  H        18.2735593991        9.2676668483       18.1714303705
  H        18.5847403558       10.6536937788       21.6651460616
  H        17.7085518592        9.4854315198       20.6596482571
  H        12.9494039155       15.6643488587       16.4137986308
  H        12.7258405562       14.0281510622       17.0557845396
  H        13.1459859104       14.9868935355       20.6679269605
  H        12.8380861300       13.6263926571       19.5736273428
  H        13.3979073876       17.6111586625       18.0168154740
  H        13.4561112630       17.3188088985       19.7540803232
  H         9.6616437995       17.0286374777       17.6746265508
  H        11.1281906109       17.4327371761       16.7698775796
  H        10.5930529648       13.4410147362       18.3587586228
  H         9.3440862077       14.6687997401       18.6101814949
  H         9.7769429139       16.6283736742       20.1942328397
  H        11.3264133066       16.7598464974       21.0414672427
  H        16.2041744630       21.4032317225       26.6886352499
  H        17.7445814364       22.2746207976       26.6678960952
  H        17.7048211984       17.9533824235       26.5515497387
  H        16.1806155650       18.8501918105       26.6209401995
  H        19.9354405887       20.9792264509       26.5693747416
  H        19.9176769559       19.2092701394       26.5232723699
  H        19.2718221431       22.2093755609       28.7252577768
  H        18.7928606913       21.2903096633       30.1606249003
  H        16.5654171428       20.0285454855       30.1860030184
  H        15.5057030869       20.0757579723       28.7697425033
  H        19.2337300395       17.8816877912       28.6114172754
  H        18.7691749574       18.7324897594       30.0928953092
  H        25.4963353178       22.2242330864       23.4656407258
  H        26.5930875075       21.3469808720       22.3892396669
  H        23.8136017967       19.1713141775       24.8740410500
  H        23.8583331502       20.9405064280       24.9312813013
  H        26.5305598600       18.7947205391       22.3064622323
  H        25.3899597587       17.9045921704       23.3250740119
  H        28.5394023202       19.9884792045       23.3657011755
  H        28.7832581692       19.9257755120       25.1172015727
  H        25.8616042696       22.1358544058       26.0034161605
  H        27.2017706160       21.1948677317       26.6764369670
  H        27.1376546865       18.6368426487       26.5934784985
  H        25.7536708517       17.8099254247       25.8617808620
  H        24.9207067436       11.9977076018       17.7583379852
  H        28.1379794983       14.7548776078       18.6081583478
  H        27.3998726523       11.4158354600       21.2500407088
  H        20.7988647314       30.0418451386       28.3699897842
  H        23.1164983157       26.3951626862       28.3059985184
  H        24.7621770831       30.0310321846       26.6491984393
  H        16.6049293145       29.0552769527       21.6044164612
  H        20.4226776672       30.7670034126       20.5251497295
  H        17.6057747462       29.6477487199       17.4428949434
  H        27.7978314863       28.6750176238       21.8825079594
  H        28.3667600635       25.4931560479       19.0145607476
  H        25.3268889176       28.4897376458       18.3412624495
  H        23.2292320694       27.7047768858       12.0360547433
  H        26.2243074926       26.7767249336       15.0093534217
  H        24.3408272971       23.5942424305       12.7741242381
  H        16.6164367995       11.5955563447       13.4428963709
  H        13.7303132362       14.3103989084       11.7183931415
  H        17.7619068992       14.1751161148       10.1703062404
  H        21.2495089503       22.6994141645       11.2025526309
  H        21.1100470021       18.3815491192       11.0595492281
  H        17.5068760983       20.6367501343       11.8267011539
  H        10.7198934261       22.3968263347       24.7200582242
  H        10.7263500407       18.0771657237       24.5955158624
  H        13.8838117117       20.1834128625       26.6598925636
  H        10.9459244001       26.4542948893       21.0784098138
  H        10.7258064027       26.1491576059       16.7734390466
  H        11.3285330252       22.5973976400       19.1655369050
  H        17.9625573888       26.9899846242       10.5397177707
  H        13.9432938342       26.9453952718       12.1246103688
  H        16.9597546730       29.4396162491       13.9557942168
  H        29.3369964482       22.3090280351       17.2252820837
  H        28.2433868799       20.1288005239       20.7921202703
  H        29.2038520711       17.9900109106       17.1627208593
  H        12.3287808835       22.7504932440       14.4579666419
  H        15.5505625216       20.5350298659       12.6234803371
  H        12.2067353460       18.4319278993       14.3682871273
  H        23.0827073210       12.9980771494       11.7347627514
  H        23.8660271650       17.2158429360       12.2658413649
  H        26.0776517302       14.3000320090       14.5642022921
  H        12.7033126196       25.3940053071       25.6815031306
  H        15.0903642077       28.5147013159       27.4810916241
  H        14.3018846931       28.5756443754       23.2320617101
  H        12.5126005013       15.0534865138       25.3342520177
  H        14.0353939714       11.9820838706       22.7023482501
  H        14.7954943736       11.7596382628       26.9512814377
  H        22.9040752907       13.5939362031       27.8923284912
  H        20.4760874042       10.0213277558       27.7674777655
  H        24.4300473378       10.0081001243       26.0252170861
  H        16.3151069569       11.5355118324       21.0637642000
  H        17.2809206607       11.1747443928       16.8677631295
  H        20.0711738579        9.7729190039       19.8574342963
  H        11.2677070301       18.3391984526       19.1038597545
  H        10.5212853209       15.0289479797       16.4231477376
  H        10.7217715587       14.3545989766       20.6870256145
  H        20.5029886775       20.0304651060       28.8196617737
  H        16.7820689553       22.2208462854       28.9792426671
  H        16.7440432419       17.9004010846       28.8635320963
  H        27.6994464194       17.8164674700       24.2877524966
  H        27.8063566770       22.1352307249       24.4279745906
  H        25.0275846638       19.9599568870       26.9213127045
