400
Energy =  -2630.2523223411
 Au        23.5781492173       23.9881930602       23.5331264378
 Au        22.1912210091       21.5655628404       22.8120417467
 Au        25.8164494046       24.9999240965       21.6357965473
 Au        20.9156026826       25.6169748389       23.7157286256
 Au        23.8698497410       21.4220348382       25.2579244664
 Au        23.1990170523       26.4640263552       21.9247057894
 Au        24.1524582372       22.6159901314       21.0601457503
 Au        26.1120897260       22.4342719302       23.3597231407
 Au        21.6503701695       23.9344958085       21.3718004830
 Au        24.1235716736       25.4483175988       19.4636056044
 Au        21.3703405101       23.1013946287       25.3238922522
 Au        24.8544260350       19.9344741505       23.0999311397
 Au        19.2613035416       23.3550421934       23.4913844791
 Au        26.4240817320       20.4229639749       25.4607798862
 Au        22.9772071026       25.5962476889       25.8658808365
 Au        25.1839451804       26.2778104096       24.2402311766
 Au        26.2497776608       23.5378352078       18.5291574242
 Au        18.4683593205       25.2286995372       21.2988448344
 Au        22.5401819300       18.3923099678       24.1023710976
 Au        22.2005933018       28.1032115191       23.9717280006
 Au        27.7970904013       24.6720776098       23.5877530579
 Au        27.8288665607       23.1987214810       21.1175914460
 Au        25.2986286471       23.9504768772       25.8488067516
 Au        27.5078211036       19.9025467633       21.1776633209
 Au        28.3455469025       26.0363541063       19.6580916828
 Au        25.5444292479       27.6013129245       20.7173459396
 Au        18.0055809159       27.3961495712       23.9281012878
 Au        20.4771533252       27.4875876438       21.7443135857
 Au        25.6770784880       21.5148955366       28.2102733010
 Au        24.2843128138       18.5873203183       27.0371469611
 Au        20.4059052206       27.8230476771       26.3477184920
 Au        19.2541497237       25.0394260207       25.8330977058
 Au        18.5931638292       20.3601461395       24.9590596041
 Au        21.5286781687       20.4270765638       26.3608394783
 Au        28.0311982312       27.4916435054       22.7322419383
 Au        22.9342539481       22.5911958116       27.6123238032
 Au        21.6826569614       27.3057451642       18.5801355336
 Au        24.4203299795       30.1508731323       22.3968776462
 Au        29.2040079399       22.2105079342       25.2255640117
 Au        20.2804108473       23.8615158491       28.8464931836
  S        20.0204382050       24.5319660863       19.6573131666
  S        24.4154710173       19.7238041376       29.1051681013
  S        25.6282396447       18.4792599959       21.2766854364
  S        20.4836772951       28.9354322656       19.7856219988
  S        25.2306792193       21.5048258879       19.1748785010
  S        22.8138028817       25.6113096071       17.3923655421
  S        20.9056798839       19.4978681911       22.8123792112
  S        21.8926085707       26.6637391821       27.7732530633
  S        27.1847572329       25.5315573800       17.6624393879
  S        23.2407516034       30.2739509942       24.4374084132
  S        26.9602513921       23.3845346863       27.5425309835
  S        25.9228198350       29.9988347506       20.5812784277
  S        19.5824094661       18.9917451537       26.6100593638
  S        22.4118814201       23.5577981577       29.8090565942
  S        26.4434510409       28.3615048960       24.2423328860
  S        24.0911589004       17.0292712299       25.2630925190
  S        17.7544435839       21.4710119251       23.0526956779
  S        29.3689127241       21.3241666353       20.9136904082
  S        18.9631700845       29.2202637084       25.0862884873
  S        29.6195766738       24.5333832877       25.2311193591
  S        18.1738976087       24.2509550009       27.8689918632
  S        16.7070253253       25.7840246329       22.7878366980
  S        29.8227566367       26.8038947703       21.3436457477
  S        28.7998644134       19.8943308163       25.3884062807
  C        20.9700136504       18.6285240929       21.2406015024
  C        20.0825261664       17.5384266652       21.0654493772
  C        20.0963044415       16.8848662565       19.8229112573
  C        20.9457176769       17.2858491876       18.7881305258
  C        21.8109710266       18.3654906022       18.9790711152
  C        21.8214619787       19.0339349714       20.2045190934
  C        24.0759088554       21.1843468409       17.8347327924
  C        24.5100168414       20.3237771234       16.7964276311
  C        23.6017593829       20.0418617414       15.7635259963
  C        22.3103631884       20.5760157193       15.7511910939
  C        21.8963279312       21.4145224889       16.7886929349
  C        22.7800718080       21.7181381354       17.8256421543
  C        23.8596422615       26.3785138345       16.1546602921
  C        24.4161905011       25.5409399905       15.1577603043
  C        25.1963879588       26.1442891072       14.1579388466
  C        25.4219729605       27.5219547065       14.1284386479
  C        24.8646751365       28.3339111289       15.1201519340
  C        24.0889691072       27.7630907977       16.1298610655
  C        28.4687520830       25.1249892730       16.4732567833
  C        29.1346119851       26.1986144096       15.8332020424
  C        30.0649989562       25.8816662468       14.8306916351
  C        30.3324554411       24.5611447323       14.4614613776
  C        29.6697398854       23.5150713379       15.1077313883
  C        28.7429463404       23.7981497169       16.1121027346
  C        30.5405918837       28.2863967942       20.6178003377
  C        31.6918334766       28.1330473441       19.8082540924
  C        32.2976094193       29.2967285624       19.3071624091
  C        31.7984623706       30.5704304859       19.5889888556
  C        30.6598313659       30.7038602908       20.3876496708
  C        30.0343735225       29.5649465961       20.8971811188
  C        26.1497489259       16.9165023653       21.9816657028
  C        25.2587514430       15.8198600140       21.8857250596
  C        25.6948493490       14.5781996028       22.3764109318
  C        26.9632688649       14.4081574354       22.9354684285
  C        27.8316486060       15.5004900538       23.0200138191
  C        27.4233569244       16.7488027897       22.5492352110
  C        29.9965072021       21.0524326554       19.2581437888
  C        31.0688550362       21.8610147649       18.8090220691
  C        31.6438116185       21.5570772065       17.5653193232
  C        31.1883409406       20.4960194170       16.7793564107
  C        30.1208317815       19.7140830482       17.2288921165
  C        29.5297913247       19.9930388155       18.4619326938
  C        22.9003574501       27.9848877273       28.4612285300
  C        22.5216050128       28.4987480637       29.7258797680
  C        23.3240814707       29.5059559488       30.2851322814
  C        24.4620051921       29.9888907128       29.6333332476
  C        24.8252083900       29.4639534510       28.3909669590
  C        24.0433833645       28.4652640880       27.8079156880
  C        17.6679463866       29.8330994923       26.1735441110
  C        16.7437728599       30.7623723279       25.6379763623
  C        15.7962705703       31.3176748341       26.5126580767
  C        15.7551169455       30.9805075186       27.8674051263
  C        16.6709348192       30.0575093510       28.3774629755
  C        17.6213518650       29.4847496638       27.5311878526
  C        21.9801451236       31.5359296650       24.2853399798
  C        21.3936447459       32.0296284813       25.4762367013
  C        20.4453130762       33.0592048429       25.3595463888
  C        20.0887386036       33.5993330855       24.1219171468
  C        20.6828743131       33.1059301026       22.9564841623
  C        21.6202566703       32.0760302842       23.0399738441
  C        19.2319975948       23.0779429432       18.9513963562
  C        18.4754470515       23.2602105882       17.7676283383
  C        17.8861446518       22.1235695793       17.1914306254
  C        18.0374131854       20.8514264837       17.7497174680
  C        18.7943011293       20.6894898690       18.9124199685
  C        19.3878914283       21.8023456079       19.5105470865
  C        25.1112394808       30.6462808869       19.1199001065
  C        25.9346569907       31.1013889590       18.0626328775
  C        25.3052147797       31.6798816987       16.9479325919
  C        23.9158845750       31.7964586645       16.8609937989
  C        23.1168646851       31.3254937859       17.9073179213
  C        23.7153960606       30.7579568295       19.0319165862
  C        22.3231731074       22.2052128016       30.9824701450
  C        23.4159999542       22.0325768091       31.8662491857
  C        23.3300033055       21.0043608058       32.8190154017
  C        22.2108188896       20.1743905472       32.9103663938
  C        21.1408973410       20.3591990773       32.0303275702
  C        21.1990313111       21.3691668004       31.0693055111
  C        15.4673257563       26.7212604114       21.8824218368
  C        14.2821546390       27.0804971947       22.5686737979
  C        13.2721132228       27.7218496068       21.8340610301
  C        13.4121005908       27.9990169235       20.4722837838
  C        14.5905403676       27.6427169500       19.8125971629
  C        15.6145948210       27.0088935651       20.5177717139
  C        16.0815895655       22.0051022067       23.4006873947
  C        15.2660322330       22.3780859058       22.3044422195
  C        13.9366208307       22.7431867279       22.5733850062
  C        13.4143989981       22.7326902283       23.8686643991
  C        14.2304684684       22.3539373955       24.9387859407
  C        15.5585151159       21.9969639737       24.7039461712
  C        17.3295662264       25.4759576496       28.8636586588
  C        16.0153523844       25.8465668859       28.4881884865
  C        15.3013577949       26.6942062543       29.3489751961
  C        15.8507014796       27.1678628617       30.5429580211
  C        17.1548920675       26.8073058043       30.8929733778
  C        17.8894874327       25.9668763516       30.0549893931
  C        27.4011473637       28.6040237716       25.7437380499
  C        27.9900037462       29.8774832322       25.9390112536
  C        28.7000990883       30.0869304379       27.1319472938
  C        28.8267380163       29.0869833888       28.0999818853
  C        28.2360713179       27.8388344686       27.8903104398
  C        27.5250214890       27.6001073907       26.7130192751
  C        26.8621783864       24.4744880500       28.9687924828
  C        27.9240233889       24.4150349805       29.9047763751
  C        27.8714862903       25.2875906360       31.0034996224
  C        26.8212512020       26.1933563312       31.1759862539
  C        25.7879682902       26.2447621217       30.2375513867
  C        25.8097462765       25.3842676019       29.1386878157
  C        31.1717483444       24.8236007307       24.3838886010
  C        31.7566615450       26.1080569002       24.5013117380
  C        33.0065979026       26.3153866598       23.8952087788
  C        33.6705072400       25.2999254682       23.2035078742
  C        33.0805195239       24.0367993493       23.0994705281
  C        31.8350676374       23.8030334472       23.6833180795
  C        29.4945735887       19.3583875285       26.9501028465
  C        29.2966090838       18.0124757513       27.3434253372
  C        29.9538462172       17.5630601592       28.4992537645
  C        30.7810906022       18.3994877572       29.2523209385
  C        30.9579598916       19.7289807227       28.8594940201
  C        30.3168660162       20.2033868382       27.7143262378
  C        23.1666081836       15.6756806683       26.0066639983
  C        23.8980911024       14.6742922163       26.6895848255
  C        23.1841972025       13.5784158454       27.2010567277
  C        21.8007542506       13.4608218416       27.0487687007
  C        21.0937182017       14.4594810366       26.3742681401
  C        21.7759383972       15.5621538460       25.8579639163
  C        25.4765937045       18.6974268390       30.1292879031
  C        24.8906467272       17.5757889151       30.7651558375
  C        25.6943540524       16.8340147312       31.6454937344
  C        27.0238462509       17.1787698547       31.9008651317
  C        27.5860963622       18.2855059694       31.2604514849
  C        26.8138506977       19.0397020685       30.3758252679
  C        18.7875817143       19.3353769369       28.1797506880
  C        18.8626631928       18.3394419828       29.1824977742
  C        18.1763636834       18.5721028673       30.3859273697
  C        17.4529303114       19.7459504410       30.6097849246
  C        17.4041312706       20.7268956977       29.6146425296
  C        18.0655187267       20.5171216977       28.4048425640
  C        18.9163716824       29.1801129865       18.9568943312
  C        18.6278020515       28.5497633015       17.7348712215
  C        17.4657932205       28.8645936144       17.0287454821
  C        16.5777284400       29.8134961090       17.5429056158
  C        16.8564745885       30.4266186510       18.7668606270
  C        18.0175482655       30.1314281963       19.4977584643
  C        25.8905144142       19.7197975648       16.7777906195
  C        21.7641503332       31.4936481483       26.8324762597
  C        28.8775336249       27.6357750240       16.2006846114
  C        19.1570875395       17.0694012570       22.1582730891
  C        18.2939174681       24.6131983846       17.1294038468
  C        24.1986727724       24.0521272609       15.1474158163
  C        15.7790344387       22.3816570729       20.8900340117
  C        31.5867368594       23.0139730127       19.6227051166
  C        21.3069213550       28.0003733325       30.4654980609
  C        27.8845564204       30.9790801233       24.9162712530
  C        19.6402164757       17.0640604093       28.9872809903
  C        31.0840118701       27.2284901148       25.2466778003
  C        23.8875190371       15.9531466464       21.2812716703
  C        27.4358959781       30.9860590586       18.1108664294
  C        29.0791505687       23.4597913386       29.7496204283
  C        24.6414433875       22.9036639228       31.8068109782
  C        25.3880184122       14.7654875741       26.8844115687
  C        23.4624067778       17.1686082332       30.5183041043
  C        28.4122741242       17.0806477034       26.5629548338
  C        14.0889775334       26.7998915003       24.0345182721
  C        15.3879139348       25.3495157966       27.2155898011
  C        16.7521492969       31.1535731389       24.1848062813
  C        32.2582959040       26.7794040696       19.4721484006
  C        18.2865512888       30.8162885575       20.8086342052
  H        19.4192582391       16.0454157427       19.6735539395
  H        20.9274353301       16.7602191091       17.8356625185
  H        22.4685998385       18.6999808395       18.1793264347
  H        22.4905712854       19.8779494493       20.3664568371
  H        23.9232063987       19.3832526704       14.9583335599
  H        21.6290256940       20.3320506722       14.9387080606
  H        20.8884102706       21.8246008015       16.8045138733
  H        22.4699184255       22.3717815956       18.6400886252
  H        25.6316173250       25.5080292674       13.3894149261
  H        26.0274519687       27.9567629587       13.3360185318
  H        25.0267046342       29.4095163532       15.1194435185
  H        23.6531396986       28.3902607826       16.9066958365
  H        30.5827640131       26.6984863445       14.3309529059
  H        31.0552265497       24.3521759111       13.6756974008
  H        29.8739660231       22.4797783916       14.8450326431
  H        28.2273224294       22.9904170464       16.6305194025
  H        33.1841059187       29.1893552570       18.6845943351
  H        32.2957527938       31.4509438241       19.1880405547
  H        30.2559599949       31.6877947454       20.6169303011
  H        29.1399275601       29.6556633974       21.5129301520
  H        25.0162482749       13.7297730151       22.3074678101
  H        27.2730896192       13.4292750231       23.2951155150
  H        28.8266241130       15.3838185087       23.4446856036
  H        28.0900011926       17.6086383062       22.6096367054
  H        32.4691076629       22.1740183499       17.2144167619
  H        31.6653330012       20.2808526714       15.8254608136
  H        29.7520307532       18.8831880727       16.6311300122
  H        28.7059480449       19.3833374340       18.8316440972
  H        23.0433818548       29.9106431855       31.2561063801
  H        25.0654746676       30.7663287270       30.0972553240
  H        25.7180446006       29.8155695342       27.8776940601
  H        24.3155851707       28.0475433221       26.8394880765
  H        15.0815337745       32.0338637573       26.1111708285
  H        15.0112618469       31.4345903346       28.5185342230
  H        16.6467919301       29.7690217389       29.4255386546
  H        18.3339419272       28.7561769722       27.9167180773
  H        19.9869361316       33.4432359312       26.2691980456
  H        19.3589137430       34.4043831899       24.0694544720
  H        20.4249683600       33.5228849908       21.9851456143
  H        22.0930411338       31.6835072731       22.1405824231
  H        17.3009488618       22.2498271628       16.2820506296
  H        17.5718741465       19.9903757865       17.2746635095
  H        18.9371976268       19.7037647133       19.3507792004
  H        19.9806310523       21.6897496687       20.4174445086
  H        25.9304868649       32.0457951668       16.1350535844
  H        23.4608567801       32.2497210702       15.9829310825
  H        22.0321785157       31.3942546384       17.8553319262
  H        23.1015590693       30.3898959824       19.8520312077
  H        24.1668100862       20.8615920953       33.5003584587
  H        22.1753853308       19.3906849305       33.6640962467
  H        20.2584648313       19.7252433667       32.0810085915
  H        20.3690178493       21.5175857146       30.3794663047
  H        12.3564827438       28.0016244302       22.3520535838
  H        12.6065937609       28.4916017636       19.9319227619
  H        14.7267531302       27.8628498037       18.7565165892
  H        16.5420057170       26.7357317751       20.0152223233
  H        13.3030665512       23.0346713858       21.7375031817
  H        12.3764517100       23.0102942787       24.0392057544
  H        13.8367979529       22.3294232141       25.9528146768
  H        16.2053157930       21.6973863814       25.5276355387
  H        14.2890825911       26.9801566761       29.0688680928
  H        15.2635625919       27.8116215726       31.1945740533
  H        17.5997858357       27.1670574072       31.8184203543
  H        18.9010391852       25.6626259183       30.3220436525
  H        29.1578251132       31.0610390997       27.2961778328
  H        29.3800953602       29.2842745316       29.0157853048
  H        28.3129031847       27.0537774537       28.6397818405
  H        27.0585516432       26.6317050238       26.5373226270
  H        28.6803397017       25.2511251708       31.7314159690
  H        26.8145175239       26.8605374914       32.0354663841
  H        24.9718480602       26.9563676150       30.3465342176
  H        25.0093391464       25.4134002159       28.4002640000
  H        33.4632549582       27.2999815742       23.9795915036
  H        34.6434344115       25.4917640342       22.7561162931
  H        33.5878318032       23.2317652246       22.5717407236
  H        31.3637109707       22.8233848221       23.6091749038
  H        29.8063391453       16.5294502222       28.8070626809
  H        31.2849322724       18.0146795013       30.1365081985
  H        31.5988431743       20.3957420884       29.4325606701
  H        30.4566340788       21.2335657035       27.3881820772
  H        23.7378738297       12.8024676605       27.7267429242
  H        21.2802235976       12.5956391577       27.4535590790
  H        20.0156922743       14.3856415583       26.2469823710
  H        21.2342163753       16.3524579200       25.3389780746
  H        25.2549200326       15.9700004249       32.1408603793
  H        27.6158337389       16.5850870245       32.5941027188
  H        28.6231469553       18.5624512935       31.4347838205
  H        27.2441017219       19.8990133532       29.8624735021
  H        18.2163124875       17.8060152740       31.1586937170
  H        16.9332672825       19.8943349561       31.5539484485
  H        16.8576614781       21.6545367338       29.7722912575
  H        18.0320303191       21.2746645865       27.6239253841
  H        19.3385117511       27.8247604847       17.3393433647
  H        17.2652696774       28.3761608888       16.0774212920
  H        15.6750958891       30.0765297088       16.9953159798
  H        16.1623078407       31.1591651797       19.1748183026
  H        26.0199628199       19.0753355207       15.8996085868
  H        26.0775189953       19.1191846037       17.6807851037
  H        26.6712120978       20.4953362190       16.7545740646
  H        22.8424878206       31.5868620130       27.0257900981
  H        21.5292906188       30.4189128384       26.9185305455
  H        21.2208802105       32.0239743838       27.6236649591
  H        29.4573682143       28.3108583472       15.5595526397
  H        29.1565749394       27.8345758910       17.2484569753
  H        27.8116210455       27.8902338515       16.1026223214
  H        18.5190967054       16.2512482188       21.8022583874
  H        18.5118131507       17.8824729197       22.5238890744
  H        19.7238844936       16.7078906539       23.0304531741
  H        17.6927396701       24.5330665183       16.2153656850
  H        19.2621919955       25.0679594004       16.8705460462
  H        17.7923326053       25.3168409789       17.8111191479
  H        24.6885493326       23.5927199171       14.2805722879
  H        23.1305341428       23.7939678183       15.1202481245
  H        24.6046678913       23.5809611913       16.0582618247
  H        14.9881008816       22.6724213588       20.1884462981
  H        16.1634620774       21.3949454702       20.5943121979
  H        16.6192206761       23.0866357394       20.7683530599
  H        32.4328875744       23.4986856231       19.1212682318
  H        31.9129474693       22.6920426164       20.6221326434
  H        30.8019007174       23.7705423772       19.7869489135
  H        21.3661320937       26.9169829492       30.6502845809
  H        20.3857157735       28.1676198096       29.8868348377
  H        21.2039227088       28.5117836341       31.4304725273
  H        26.8370175398       31.2056933782       24.6664194099
  H        28.3730449740       30.6920429944       23.9720060444
  H        28.3617454168       31.8961801736       25.2828694357
  H        19.2512785735       16.4791734792       28.1410798313
  H        19.5947019130       16.4381950123       29.8869284603
  H        20.6981109550       17.2665555810       28.7617931850
  H        31.7113960263       28.1278173554       25.2498915633
  H        30.8655303496       26.9531376922       26.2883132789
  H        30.1149560377       27.4894050336       24.7885552206
  H        23.2669433738       16.6665550307       21.8495593117
  H        23.3698427299       14.9865504956       21.2700122684
  H        23.9299203869       16.3370210241       20.2520203743
  H        27.8864330519       31.3707316868       17.1877456508
  H        27.7569334562       29.9416399470       18.2415773702
  H        27.8568825243       31.5460400765       18.9585965909
  H        28.7401521751       22.4126145938       29.7438101558
  H        29.7978548094       23.5839326900       30.5689574982
  H        29.6063316318       23.6196610328       28.7969335445
  H        24.3936773426       23.9684172426       31.9217502984
  H        25.1524639165       22.8114602764       30.8337638369
  H        25.3548174480       22.6269187615       32.5922721105
  H        25.9135580792       14.8851642333       25.9251459856
  H        25.7711635489       13.8667497393       27.3829504836
  H        25.6538111208       15.6393648058       27.5004209415
  H        22.7668726160       17.9920712747       30.7389388038
  H        23.1906684746       16.3069410682       31.1401580787
  H        23.3038146638       16.8929133974       29.4628198291
  H        28.7339490660       16.9971538809       25.5148941086
  H        27.3729992621       17.4474743421       26.5347133135
  H        28.4116530305       16.0777970309       27.0063940115
  H        13.0972865283       27.1311429899       24.3662840871
  H        14.8457680428       27.3196510506       24.6432502331
  H        14.1889819430       25.7262399272       24.2534130301
  H        15.3323593903       24.2512376363       27.1939712257
  H        15.9827124457       25.6415584406       26.3355776136
  H        14.3740398200       25.7494229476       27.0954566705
  H        16.5641461456       30.2829226601       23.5367214597
  H        17.7274869792       31.5660934393       23.8862315282
  H        15.9796784049       31.9050052618       23.9801731772
  H        33.1799949071       26.8779151257       18.8857601789
  H        31.5402684305       26.1843446200       18.8855745659
  H        32.4808719657       26.1987940905       20.3799330692
  H        17.4801964851       31.5160089872       21.0585447250
  H        19.2350028186       31.3727769752       20.7882998505
  H        18.3792592499       30.0866882012       21.6290000394
