 510 
 i =      371, E =     -2719.6743563273
 Au        15.6240071133       19.3815302907       18.0241980242
 Au        17.6967309617       18.0119650979       19.7149597568
 Au        19.7585989169       16.7524474996       21.3492285441
 Au        20.5937786539       18.5938456686       19.3583638016
 Au        18.6025268683       19.9897115010       17.5451049570
 Au        19.1378195650       17.0910065025       17.1516513386
 Au        17.1992670467       21.0189589054       19.9872584444
 Au        18.0218932657       22.7889907758       17.9669224391
 Au        15.9814486152       21.1981633061       15.8861485869
 Au        18.7339818806       21.5108058641       13.7080451424
 Au        20.2662355996       23.1845482586       15.8430215192
 Au        17.1913263698       18.3897185544       15.5329038713
 Au        17.6910858422       15.1620405911       14.8402448292
 Au        20.0995070531       14.5155308486       16.5335966492
 Au        18.4200808047       15.0261620492       18.9200838608
 Au        16.0941200144       16.6072360957       17.6731930490
 Au        14.8335207121       17.5351357555       20.0187649929
 Au        15.8234423292       14.8477930336       21.2982082905
 Au        12.1095032435       18.5344098033       18.9066192171
 Au        13.3292400023       20.5468854726       16.9053878783
 Au        13.7054529126       17.7495015211       15.7856695756
 Au        19.9217351422       18.9486716163       15.1578912257
 Au        21.7387995648       20.4218516560       17.5244312057
 Au        23.3882244491       18.6134728609       19.2122118851
 Au        25.6304021361       16.0475080155       18.0353778401
 Au        21.1333127598       15.7042079257       18.8471240032
 Au        21.0367580737       16.2870528118       14.0738310979
 Au        22.4848616458       20.1106746944       21.6568113143
 Au        19.9529732392       21.6193806973       19.6664272724
 Au        18.7231732738       22.9133866015       22.3323818697
 Au        15.7990805902       22.3920099195       21.9623301511
 Au        16.6509716757       24.6689457184       20.0668577484
 Au        15.0521518472       22.2641748543       18.3137046502
 Au        14.3017224403       20.4776668879       20.4961687444
 Au        16.3063833501       19.4280162198       22.1278917278
 Au        19.3119141770       19.5105767547       21.7169411333
 Au        17.4423032897       16.4320478953       23.4766562481
 Au        22.8227618846       16.5578193896       21.5579438151
 Au        22.0429851131       17.7108367014       16.9267179958
 Au        12.4324872461       23.7291145460       21.7290628128
 Au        11.0245218790       22.7949184179       18.3937848226
 Au        23.5754659865       13.5618332857       16.0808540012
  S        20.7207980746       20.3026916911       13.2447651895
  S        22.3562749461       22.0803434005       15.8635745019
  S        18.2911815789       24.4519138340       16.1767452820
  S        16.6040545295       22.5117205388       13.9464333354
  S        19.0595321608       15.6136189244       12.9581442668
  S        23.1453767754       16.6733185597       15.0495422386
  S        21.4402182337       12.8242012370       15.4141206966
  S        25.7786725708       14.3202791141       16.4429308650
  S        25.6494191219       17.8191392292       19.5844276991
  S        22.2783108427       22.0829464603       20.3652141410
  S        18.7154529445       24.9702617759       21.1653492910
  S        14.5726150102       24.5486981509       18.9684275782
  S        14.0067702448       23.1846735480       23.3838575667
  S        10.8039150860       24.3500294875       20.1474868895
  S        11.0376265796       21.2886752706       16.5870492382
  S        15.1945918286       18.4906221911       14.1099868536
  S        16.1997578930       14.4396288922       16.5239622992
  S        17.5803604102       13.4492399931       20.5547109095
  S        22.9740774159       14.7350649315       20.0755562143
  S        23.0246636796       18.3251239131       23.1230173990
  S        19.3586953494       15.0794870817       23.1375235498
  S        15.7133129019       17.9585153985       23.9615847543
  S        13.8077859225       16.0329467874       21.7033919962
  S        11.9840802120       16.9177391346       17.1817596173
  S        11.9027808708       20.1805666500       20.5794398834
  S        18.8723167573       20.9632583457       23.6571132440
  C        20.2902592545       19.4181289856       11.6594772006
  H        19.4426428166       18.7547318518       11.8730533213
  C        19.8993769010       20.4336268454       10.5767105329
  H        20.7178106530       21.1597826110       10.4580008117
  H        19.0217789288       21.0059053756       10.9129409232
  C        19.6185733154       19.7364950037        9.2328385589
  H        19.3642674707       20.4893912952        8.4721887228
  H        18.7325716001       19.0911154220        9.3369523982
  C        20.8155269097       18.8879735889        8.7777712500
  H        20.5803442651       18.3632253377        7.8398858901
  H        21.6670719030       19.5490430451        8.5575964327
  C        21.2178537066       17.8833117045        9.8674678673
  H        22.1056053561       17.3107983850        9.5604552617
  H        20.4097118285       17.1491667337       10.0064302869
  C        21.4936631684       18.5817132981       11.2111573288
  H        22.3713915960       19.2396602652       11.1173564065
  H        21.7281119771       17.8322455444       11.9854222585
  C        23.4031590534       23.3936495059       16.6588685503
  H        22.8594123840       23.7451721454       17.5457115992
  C        23.5817979503       24.5488426234       15.6608406636
  H        22.5955723427       24.9499146049       15.3817305169
  H        24.0288505165       24.1514135628       14.7370036311
  C        24.4806980219       25.6548147004       16.2412317805
  H        23.9773494345       26.1188050604       17.1033770871
  H        24.6141671274       26.4530490233       15.4961360160
  C        25.8396132468       25.0929176012       16.6836018759
  H        26.3925023850       24.7417059815       15.7995287875
  H        26.4538632907       25.8840597764       17.1387375312
  C        25.6586957904       23.9266949442       17.6664761143
  H        25.2116768429       24.3037329538       18.5996894095
  H        26.6351195556       23.5050953120       17.9453966575
  C        24.7578810240       22.8180669345       17.0885355164
  H        25.2451975694       22.3569655764       16.2155412905
  H        24.5995566102       22.0193188797       17.8286427257
  C        18.8603761846       26.0935563879       16.8294210665
  H        18.0107971426       26.4407424518       17.4389320299
  C        19.0522971446       27.0357898529       15.6290768315
  H        18.1325985230       27.0737308053       15.0275772409
  H        19.8330703050       26.6127910152       14.9784247854
  C        19.4610038776       28.4475936866       16.0891598601
  H        19.6234673261       29.0899967386       15.2110565406
  H        18.6325277721       28.9016483083       16.6536354093
  C        20.7186354134       28.4085887122       16.9709500366
  H        21.5742107387       28.0667743945       16.3690025638
  H        20.9710859753       29.4198304545       17.3228782636
  C        20.5250481899       27.4578049452       18.1622720302
  H        21.4455899532       27.3962672464       18.7626421432
  H        19.7491548265       27.8640579092       18.8298057188
  C        20.1138029994       26.0473505546       17.7042498236
  H        20.9272005603       25.5905092778       17.1166632970
  H        19.9392429389       25.3888491166       18.5661946944
  C        15.7287455300       21.8411609183       12.4516758866
  H        15.9818465400       20.7761607449       12.3788375770
  C        14.2099546632       21.9865639463       12.5973905095
  H        13.9650846053       23.0434453484       12.7855888628
  H        13.8707426300       21.4129654413       13.4730857766
  C        13.4977960713       21.4997176897       11.3205996776
  H        13.6650658243       20.4168609066       11.2104473831
  H        12.4111188995       21.6309447529       11.4269445313
  C        14.0048232741       22.2261317080       10.0656490580
  H        13.7292467639       23.2896927159       10.1248919448
  H        13.5099519465       21.8279668876        9.1673403201
  C        15.5304439373       22.1053640238        9.9364368867
  H        15.8009275264       21.0550881024        9.7483540078
  H        15.8929128336       22.6764440104        9.0689463264
  C        16.2393969972       22.5930900846       11.2126585958
  H        17.3290030195       22.4705408102       11.1267615438
  H        16.0571830512       23.6695034389       11.3517212731
  C        19.5169793014       13.9232905172       12.3167213314
  H        19.9258471325       13.3692066534       13.1712842914
  C        18.2753854938       13.2015015722       11.7798335109
  H        17.8178897832       13.8081150881       10.9830000419
  H        17.5269656125       13.1074456507       12.5810880220
  C        18.6523312111       11.8155530625       11.2222891873
  H        19.0095954070       11.1804719019       12.0472102540
  H        17.7559038449       11.3222069272       10.8186670979
  C        19.7449062865       11.9180061599       10.1467618868
  H        20.0303932571       10.9152013251        9.7956428091
  H        19.3439331041       12.4496706753        9.2709492481
  C        20.9753978089       12.6686466462       10.6788424797
  H        21.7313648859       12.7816862878        9.8880002254
  H        21.4492097053       12.0795587926       11.4780660182
  C        20.5969341750       14.0541609888       11.2353711711
  H        20.2218221510       14.6944110167       10.4222763520
  H        21.4807139740       14.5564914989       11.6570756406
  C        23.9918932517       18.0485087394       14.1226289091
  H        23.2154635033       18.7649180152       13.8218901058
  C        24.6814619934       17.4490846083       12.8879948198
  H        23.9356822995       16.9756520835       12.2333920263
  H        25.3641486365       16.6508790093       13.2167723147
  C        25.4718401274       18.5265056956       12.1210989774
  H        25.9791066822       18.0684341404       11.2592047000
  H        24.7705117049       19.2682062088       11.7099126196
  C        26.4854801179       19.2358522715       13.0317387496
  H        27.0074678126       20.0293817178       12.4765764121
  H        27.2568333151       18.5170464025       13.3460426146
  C        25.7941275593       19.8175340795       14.2743186658
  H        26.5336368772       20.2801147123       14.9456519508
  H        25.1047570829       20.6206698277       13.9724541319
  C        25.0040114710       18.7429639650       15.0432574432
  H        25.6932757719       17.9878462615       15.4557907340
  H        24.4741434736       19.1888197771       15.8986953750
  C        21.2034370841       11.1562572232       16.2002629353
  H        21.1008287253       11.3134432682       17.2810070493
  C        19.9231592688       10.5209550551       15.6390028638
  H        19.9971921640       10.4908020845       14.5408455346
  H        19.0544011284       11.1508755856       15.8800957907
  C        19.7284148442        9.0922413554       16.1817590824
  H        19.5498091887        9.1374927143       17.2669011404
  H        18.8238671086        8.6493556278       15.7388326164
  C        20.9515561859        8.2055906776       15.9071459129
  H        21.0623732115        8.0611507638       14.8221481877
  H        20.8026659781        7.2051745282       16.3398146948
  C        22.2282943780        8.8486867830       16.4677490524
  H        22.1667658114        8.8872071754       17.5660744649
  H        23.1092885709        8.2345275150       16.2298543272
  C        22.4272942989       10.2722976143       15.9173306444
  H        22.5915699002       10.2318476778       14.8297726357
  H        23.3245816703       10.7415497503       16.3494312080
  C        26.6839168677       12.9380910234       17.2839888866
  H        26.6707647312       12.1369117351       16.5293318705
  C        28.1363073358       13.3657610529       17.5408674924
  H        28.6049518148       13.6940460196       16.6023440709
  H        28.1236398024       14.2402117596       18.2112852180
  C        28.9438203319       12.2225596582       18.1839758621
  H        29.9686021434       12.5649885002       18.3905607988
  H        29.0360489018       11.3922970054       17.4678424738
  C        28.2750584455       11.7141165401       19.4707944149
  H        28.2932990286       12.5111833599       20.2285858533
  H        28.8455398408       10.8724411274       19.8906960605
  C        26.8188749072       11.2973782695       19.2090187672
  H        26.8041563316       10.4188702325       18.5462736577
  H        26.3330212206       10.9832888578       20.1452799563
  C        26.0129392472       12.4401801121       18.5662033320
  H        24.9830214751       12.1232626081       18.3418430299
  H        25.9283665027       13.2890476279       19.2634483195
  C        26.8724431335       19.0378727148       18.8962139028
  H        26.5251192827       19.3257667666       17.8957373223
  C        26.9171627611       20.2707713097       19.8088229898
  H        25.9288478912       20.7542628898       19.8337322789
  H        27.1323788074       19.9410752152       20.8375424097
  C        28.0025208605       21.2619470110       19.3502554929
  H        28.0295403733       22.1233292643       20.0339944278
  H        27.7315224769       21.6610067773       18.3613086769
  C        29.3819843226       20.5937047412       19.2593969301
  H        30.1319275327       21.3127057173       18.8975791582
  H        29.7071636925       20.2856638717       20.2643216301
  C        29.3305316137       19.3640027612       18.3405953092
  H        30.3080535232       18.8606173146       18.3090906687
  H        29.1171627159       19.6864487302       17.3104380917
  C        28.2507735294       18.3664787801       18.7978778665
  H        28.5161037979       17.9602897930       19.7859318249
  H        28.1906842633       17.5080698149       18.1118295950
  C        22.3762966262       23.5207801496       21.5553143532
  C        22.4983212564       24.8101065284       20.7092222015
  H        21.4949458833       25.1675232764       20.4422421894
  H        23.0068235014       24.5782188805       19.7612489844
  C        23.3078041342       25.8886173476       21.4482582494
  H        22.8293170181       26.1041992675       22.4142983353
  H        23.2823891952       26.8312147138       20.8826904638
  C        24.7687583837       25.4357940161       21.6734575522
  H        25.3790781486       25.7022717100       20.7987584279
  H        25.1961580707       25.9870884537       22.5225040217
  C        24.8641329990       23.9091714445       21.9253157266
  H        25.7174292128       23.6790778581       22.5779770837
  H        25.0534455270       23.3794577940       20.9803238988
  C        23.5623754568       23.3708282369       22.5307547940
  H        23.6619243485       22.3158613876       22.8261461165
  H        23.3226194890       23.9286428855       23.4497987213
  C        18.4696294205       26.3157637954       22.4279668911
  H        17.6238394983       26.0185738448       23.0599091431
  C        18.1473515407       27.6312158153       21.7062362317
  H        18.9385864321       27.8315000912       20.9670485057
  H        17.2090452236       27.5200635930       21.1418686162
  C        18.0589628302       28.8083439247       22.6950997747
  H        17.1948747824       28.6618083169       23.3609344039
  H        17.8659324318       29.7389433673       22.1414727086
  C        19.3353557871       28.9355761653       23.5399080182
  H        20.1805232531       29.1997484378       22.8868942855
  H        19.2342152514       29.7573188258       24.2641504239
  C        19.6457927391       27.6185149504       24.2665329966
  H        18.8583937677       27.4156232909       25.0081907401
  H        20.5859548280       27.6997113337       24.8318071095
  C        19.7395179076       26.4392117894       23.2807267341
  H        20.6005268691       26.5894296786       22.6119199908
  H        19.9160499146       25.4948314120       23.8173284304
  C        14.7805591940       25.5212864372       17.3975912381
  H        15.7466274720       25.2278279999       16.9648042188
  C        13.6583152984       25.1537439977       16.4185823271
  H        12.6838371541       25.3228925227       16.9036539823
  H        13.7157220435       24.0790752508       16.1889357296
  C        13.7622854028       25.9915957142       15.1311875206
  H        14.6871992997       25.7197229222       14.6003396059
  H        12.9307107958       25.7355129765       14.4574428990
  C        13.7631151327       27.4979267044       15.4348496493
  H        12.7892825608       27.7847810497       15.8589564433
  H        13.8797029990       28.0762408290       14.5062493431
  C        14.8760166838       27.8604864588       16.4306469989
  H        15.8560289954       27.6882056569       15.9595666761
  H        14.8373493272       28.9309034755       16.6812883987
  C        14.7769912299       27.0220335907       17.7194153868
  H        13.8482860366       27.2706671229       18.2552084668
  H        15.6071443027       27.2564999127       18.4029827213
  C        14.3183047494       24.7543335238       24.3115634833
  H        13.3796941766       24.8639614879       24.8753892754
  C        15.4851367469       24.5468161411       25.2975676657
  H        16.2965788032       24.0104274979       24.7806089685
  H        15.1534181167       23.8920598270       26.1150756612
  C        16.0135141740       25.8951552845       25.8553687480
  H        16.8710268345       26.2324155682       25.2554655660
  H        16.3966936118       25.7536750894       26.8756058480
  C        14.9312078714       26.9837267266       25.8248615813
  H        15.2972654114       27.9070707922       26.2957127055
  H        14.0755636315       26.6557259871       26.4318934475
  C        14.4705220450       27.2710882659       24.3746349187
  H        13.4485260542       27.6744749132       24.3896815283
  H        15.0991354519       28.0565226576       23.9316193567
  C        14.5205111621       26.0117865864       23.4690863579
  H        15.4845669536       25.9307979081       22.9444756696
  H        13.7540274581       26.0644270073       22.6826788002
  C         9.1721659779       23.9111779188       20.9381101460
  H         9.2074761120       22.8361258452       21.1451422691
  C         9.0315326595       24.7040474253       22.2563590520
  H         9.5726972786       24.1813685148       23.0573719066
  H         9.5196614363       25.6836011727       22.1485994678
  C         7.5489301665       24.9155611148       22.6044329340
  H         7.0468022623       23.9390799646       22.6519995102
  H         7.4523299536       25.3523299038       23.6081805535
  C         6.8600315296       25.8197568001       21.5529741437
  H         5.7863891368       25.5886855714       21.5172937434
  H         6.9357894504       26.8723548731       21.8591301043
  C         7.4864292083       25.6447999838       20.1472075587
  H         8.3205949830       26.3478695301       20.0135879236
  H         6.7536573481       25.8922686860       19.3668628986
  C         8.0142731207       24.2173390386       19.9592516208
  H         8.3432004771       24.0384102375       18.9253094257
  H         7.2039250332       23.4970620592       20.1489562854
  C        11.0051173053       22.3251542151       15.0268527842
  H        12.0310656045       22.6850958887       14.8886061668
  C        10.0488843108       23.5231965163       15.1412523502
  H        10.3181217029       24.1263595824       16.0210208338
  H        10.2186653955       24.1534842822       14.2521261685
  C         8.5708420708       23.1116282988       15.1938344956
  H         7.9371849814       24.0099195515       15.2247374164
  H         8.3814039960       22.5663411798       16.1305150310
  C         8.1964276097       22.2272402674       13.9935904485
  H         7.1466371872       21.9066826935       14.0650798635
  H         8.2765091228       22.8172841362       13.0677057431
  C         9.1220441065       21.0036264352       13.8983355256
  H         8.8779580534       20.4031878498       13.0093831753
  H         8.9543776092       20.3534287275       14.7696975752
  C        10.6022222094       21.4151540709       13.8529155601
  H        10.7905046301       21.9808978841       12.9257547593
  H        11.2565518619       20.5318505658       13.8177656894
  C        15.2589451008       17.1660711164       12.8072641743
  H        15.7311866882       16.2809372964       13.2644403375
  C        13.8449582022       16.8232538290       12.3209271922
  H        13.2538124012       16.4272153900       13.1606928909
  H        13.3452142367       17.7493660814       11.9959723770
  C        13.8842340393       15.8188213958       11.1544786410
  H        12.8597699302       15.6114117895       10.8116487836
  H        14.2901006772       14.8605541753       11.5129535256
  C        14.7486432293       16.3381539866        9.9955647102
  H        14.7944817384       15.5925512582        9.1879817524
  H        14.2771545035       17.2337929554        9.5636097878
  C        16.1627376915       16.6880782104       10.4808254735
  H        16.7619358460       17.1096857779        9.6595827215
  H        16.6808692129       15.7718936451       10.8009582874
  C        16.1337389689       17.6817103017       11.6557300683
  H        17.1528626218       17.8718263769       12.0225496970
  H        15.7303377426       18.6465518918       11.3102670356
  C        14.5736002821       14.0576996765       15.7071121963
  H        14.1665127956       15.0088369356       15.3282451949
  C        13.6368265640       13.4849601576       16.7802640045
  H        14.1326828283       12.6262434505       17.2594600794
  H        13.4701410694       14.2385431600       17.5635707590
  C        12.2951331111       13.0327590221       16.1774514472
  H        11.7503024753       13.9172068249       15.8152167166
  H        11.6702201522       12.5879563964       16.9666947174
  C        12.4941593344       12.0428747168       15.0207213619
  H        11.5243329114       11.7716246968       14.5779062401
  H        12.9297569696       11.1093424579       15.4077807007
  C        13.4252024802       12.6317515663       13.9500201459
  H        13.5993760092       11.9033697453       13.1443271074
  H        12.9396068970       13.5009769062       13.4808446261
  C        14.7735670703       13.0655553931       14.5542447750
  H        15.4200186460       13.5190919736       13.7875232656
  H        15.3107453941       12.1822029664       14.9335191344
  C        16.5915100665       12.1513211842       19.6624813764
  H        15.7811134420       12.6747583473       19.1392874933
  C        16.0076693647       11.1807625525       20.7005059748
  H        16.8364272305       10.7275231934       21.2652329551
  H        15.3997798857       11.7352515415       21.4302856846
  C        15.1752246098       10.0793363529       20.0189365895
  H        14.2888913272       10.5327639843       19.5494085773
  H        14.7965101937        9.3776254165       20.7767114752
  C        15.9948788171        9.3354478365       18.9535747108
  H        16.8022840901        8.7720033748       19.4449602090
  H        15.3690623125        8.5920117098       18.4377989774
  C        16.6060965713       10.3156387924       17.9404913522
  H        15.8007353388       10.7987366527       17.3654045455
  H        17.2235649163        9.7759290690       17.2086481265
  C        17.4458708338       11.4057768493       18.6325790333
  H        18.3117353005       10.9514582284       19.1389598378
  H        17.8389862449       12.1216404779       17.8952667618
  C        22.2606232591       13.2616394226       20.9623677235
  H        21.4270572950       13.6235706449       21.5792714684
  C        23.3515503207       12.6429183751       21.8492538988
  H        24.2224361323       12.3969803262       21.2221247160
  H        23.6952384893       13.3793284641       22.5897509942
  C        22.8399378111       11.3679725396       22.5465703491
  H        23.6468338618       10.9279148103       23.1509804564
  H        22.0371076194       11.6363324538       23.2497146314
  C        22.3044258296       10.3464423805       21.5318325799
  H        21.9056975904        9.4634990790       22.0530672873
  H        23.1342131788        9.9878230193       20.9039126319
  C        21.2241795424       10.9753197343       20.6387140443
  H        20.8794767905       10.2519304831       19.8836556413
  H        20.3432341998       11.2316152625       21.2465852094
  C        21.7351956709       12.2472750741       19.9385954442
  H        22.5459963818       11.9924599956       19.2373778819
  H        20.9345812317       12.7129404220       19.3439121311
  C        24.8758074704       18.4525693334       23.3207702040
  H        25.2849385937       18.5662673508       22.3084950545
  C        25.2352436347       19.6766859014       24.1710839799
  H        24.8470036248       20.5883618511       23.6936324828
  H        24.7405013213       19.5936642385       25.1511460390
  C        26.7597428744       19.7774844299       24.3699950885
  H        26.9935756751       20.6445347568       25.0052185819
  H        27.2391715267       19.9693489159       23.3978218421
  C        27.3360416076       18.4896191033       24.9779146410
  H        28.4299545411       18.5654349673       25.0670679573
  H        26.9501740673       18.3664137257       26.0008473326
  C        26.9509933847       17.2623010682       24.1377937381
  H        27.4340786617       17.3244897459       23.1511678637
  H        27.3242664408       16.3402381882       24.6070603089
  C        25.4263258841       17.1634560084       23.9438529700
  H        24.9362551056       16.9903321849       24.9141771392
  H        25.1720572717       16.3080694113       23.2995277988
  C        20.4024319059       15.5025204008       24.6243760062
  H        20.6418781021       16.5717499056       24.5651829377
  C        19.6235892805       15.2111728375       25.9152541343
  H        19.2902727417       14.1624245968       25.9001750723
  H        18.7113925356       15.8266629365       25.9378680996
  C        20.4907086306       15.4669892326       27.1616016446
  H        20.7297430259       16.5399978294       27.2237797784
  H        19.9149871453       15.2261342938       28.0674529550
  C        21.7951371706       14.6569581605       27.1162241263
  H        22.4204024024       14.8854284296       27.9920993523
  H        21.5591670871       13.5839093660       27.1754607727
  C        22.5667804079       14.9388511647       25.8186450164
  H        23.4769513919       14.3233273383       25.7653565941
  H        22.9013285201       15.9874054154       25.8121571912
  C        21.6976336899       14.6847255209       24.5739136373
  H        22.2583644850       14.9419516168       23.6598836507
  H        21.4420777945       13.6158257172       24.5095802837
  C        16.3013984245       18.7896005932       25.5163742792
  H        17.3599212085       19.0375924836       25.3677354317
  C        15.5070024855       20.0800752446       25.7487919931
  H        14.4328616128       19.8411512818       25.7785483347
  H        15.6563566251       20.7667968069       24.9022038323
  C        15.9286960218       20.7498102657       27.0696133052
  C        15.7952168984       19.7921264699       28.2636096999
  H        16.1438498657       20.2781630225       29.1870500782
  H        14.7326333393       19.5542139879       28.4213445761
  C        16.5733591894       18.4902549857       28.0172237047
  H        16.4297509227       17.7889470320       28.8524625459
  H        17.6515513811       18.7094487931       27.9816509745
  C        16.1469396085       17.8207947287       26.6974373260
  H        15.0948670379       17.5046557302       26.7631462420
  H        16.7358511608       16.9103846845       26.5119065382
  C        12.5580910378       14.9442036401       20.8462214355
  H        12.8341715679       14.9032900817       19.7850520141
  C        11.1660610035       15.5696701648       20.9883423989
  H        10.9464613996       15.7113757046       22.0577337068
  H        11.1598892875       16.5677612075       20.5192750674
  C        10.0875538291       14.6764037530       20.3491299824
  H        10.2620119765       14.6281030354       19.2633660523
  H         9.0984481876       15.1387106812       20.4833923574
  C        10.1073840408       13.2566315675       20.9345961988
  H         9.8198256881       13.2953227959       21.9959321975
  H         9.3592286486       12.6242803598       20.4338802990
  C        11.5062174072       12.6341032335       20.8100191198
  H        11.7439849877       12.4820031241       19.7456366931
  H        11.5316374529       11.6384434264       21.2771002028
  C        12.5830186549       13.5316662754       21.4468880309
  H        12.4165551958       13.6039434860       22.5324119090
  H        13.5849173772       13.0966999608       21.3140475445
  C        10.4106543530       17.3848248291       16.2956588161
  H        10.4952405209       18.4524619108       16.0537820430
  C         9.2113969102       17.1658827750       17.2273478760
  H         9.3262211717       17.7921031107       18.1251481049
  H         9.2042082597       16.1189003633       17.5673596479
  C         7.8902348469       17.4876843126       16.5044542753
  H         7.8612803927       18.5620348488       16.2673313431
  H         7.0440266827       17.2985939231       17.1811478820
  C         7.7406557219       16.6726046675       15.2107537579
  H         6.8113017276       16.9477439746       14.6903228433
  H         7.6508635865       15.6050488970       15.4614447521
  C         8.9503138278       16.8783892901       14.2861379758
  H         8.8619811459       16.2501583352       13.3875901820
  H         8.9677153524       17.9206642048       13.9341590033
  C        10.2740447623       16.5630103558       15.0078170024
  H        10.3068939457       15.4920435686       15.2611061948
  H        11.1331382636       16.7617453200       14.3495913903
  C        11.5080624314       19.2581641800       22.1490609424
  H        12.0614247747       18.3101558595       22.1164281474
  C        11.9607031301       20.0720028782       23.3654782500
  H        11.5156995171       21.0784575956       23.3170048289
  H        13.0509845012       20.2108734377       23.3304109092
  C        11.5473330146       19.3768780921       24.6749890017
  H        12.0912737999       18.4243618800       24.7641318354
  H        11.8603122988       19.9948359084       25.5298657645
  C        10.0346595984       19.1146963046       24.7240563240
  H         9.4988260289       20.0753531690       24.7498851793
  H         9.7659468782       18.5844618994       25.6498080693
  C         9.5778807652       18.3097949728       23.4981340042
  H         8.4870528528       18.1679469803       23.5102763912
  H        10.0210272362       17.3034242849       23.5395522831
  C         9.9947338520       18.9946972001       22.1822911867
  H         9.7009392310       18.3835718678       21.3164025735
  H         9.4660674820       19.9553542682       22.0829010731
  C        20.4098355333       21.1335431056       24.6865209038
  H        21.2664506374       21.1527880300       23.9942329313
  C        20.5063535877       19.8985929750       25.5937572555
  H        20.5851434066       18.9920476398       24.9762260590
  H        19.5749773891       19.8124417368       26.1752405734
  C        21.7055291688       20.0007067675       26.5531830644
  H        21.7206423644       19.1221903023       27.2159225738
  H        22.6357299357       19.9606345318       25.9670158682
  C        21.6700131075       21.2976980218       27.3746815038
  H        20.8023306660       21.2791023324       28.0511416277
  H        22.5609375456       21.3687702950       28.0161436837
  C        21.5719412436       22.5269646594       26.4580555446
  H        21.4998885529       23.4491302144       27.0533830951
  H        22.4933591878       22.6137046999       25.8623862092
  C        20.3617374326       22.4263294710       25.5111293220
  H        20.3188400288       23.2930570251       24.8336336788
  H        19.4291272836       22.4415983063       26.0965388734
  H        21.4287932049       23.5182405335       22.1151677737
  H        15.3253675823       21.6557900601       27.2316018225
  H        16.9730813544       21.0875764071       26.9835601663
